
---------- Begin Simulation Statistics ----------
sim_seconds                                  0.006671                       # Number of seconds simulated
sim_ticks                                  6670765000                       # Number of ticks simulated
final_tick                                 6670765000                       # Number of ticks from beginning of simulation (restored from checkpoints and never reset)
sim_freq                                 1000000000000                       # Frequency of simulated ticks
host_inst_rate                                  10143                       # Simulator instruction rate (inst/s)
host_op_rate                                    20514                       # Simulator op (including micro ops) rate (op/s)
host_tick_rate                               52491453                       # Simulator tick rate (ticks/s)
host_mem_usage                                4674212                       # Number of bytes of host memory used
host_seconds                                   127.08                       # Real time elapsed on the host
sim_insts                                     1289018                       # Number of instructions simulated
sim_ops                                       2606977                       # Number of ops (including micro ops) simulated
system.voltage_domain.voltage                       1                       # Voltage in Volts
system.clk_domain.clock                          1000                       # Clock period in ticks
system.mem_ctrls.bytes_read::ruby.dir_cntrl0      6717952                       # Number of bytes read from this memory
system.mem_ctrls.bytes_read::total            6717952                       # Number of bytes read from this memory
system.mem_ctrls.bytes_written::ruby.dir_cntrl0       396544                       # Number of bytes written to this memory
system.mem_ctrls.bytes_written::total          396544                       # Number of bytes written to this memory
system.mem_ctrls.num_reads::ruby.dir_cntrl0        52484                       # Number of read requests responded to by this memory
system.mem_ctrls.num_reads::total               52484                       # Number of read requests responded to by this memory
system.mem_ctrls.num_writes::ruby.dir_cntrl0         3098                       # Number of write requests responded to by this memory
system.mem_ctrls.num_writes::total               3098                       # Number of write requests responded to by this memory
system.mem_ctrls.bw_read::ruby.dir_cntrl0   1007073701                       # Total read bandwidth from this memory (bytes/s)
system.mem_ctrls.bw_read::total            1007073701                       # Total read bandwidth from this memory (bytes/s)
system.mem_ctrls.bw_write::ruby.dir_cntrl0     59445056                       # Write bandwidth from this memory (bytes/s)
system.mem_ctrls.bw_write::total             59445056                       # Write bandwidth from this memory (bytes/s)
system.mem_ctrls.bw_total::ruby.dir_cntrl0   1066518758                       # Total bandwidth to/from this memory (bytes/s)
system.mem_ctrls.bw_total::total           1066518758                       # Total bandwidth to/from this memory (bytes/s)
system.mem_ctrls.readReqs                       52484                       # Number of read requests accepted
system.mem_ctrls.writeReqs                       3098                       # Number of write requests accepted
system.mem_ctrls.readBursts                    104968                       # Number of DRAM read bursts, including those serviced by the write queue
system.mem_ctrls.writeBursts                     6196                       # Number of DRAM write bursts, including those merged in the write queue
system.mem_ctrls.bytesReadDRAM                6715328                       # Total number of bytes read from DRAM
system.mem_ctrls.bytesReadWrQ                    2624                       # Total number of bytes read from write queue
system.mem_ctrls.bytesWritten                  395456                       # Total number of bytes written to DRAM
system.mem_ctrls.bytesReadSys                 6717952                       # Total read bytes from the system interface side
system.mem_ctrls.bytesWrittenSys               396544                       # Total written bytes from the system interface side
system.mem_ctrls.servicedByWrQ                     41                       # Number of DRAM read bursts serviced by the write queue
system.mem_ctrls.mergedWrBursts                     2                       # Number of DRAM write bursts merged with an existing one
system.mem_ctrls.neitherReadNorWriteReqs            0                       # Number of requests that are neither read nor write
system.mem_ctrls.perBankRdBursts::0              6526                       # Per bank write bursts
system.mem_ctrls.perBankRdBursts::1              6586                       # Per bank write bursts
system.mem_ctrls.perBankRdBursts::2              6501                       # Per bank write bursts
system.mem_ctrls.perBankRdBursts::3              6658                       # Per bank write bursts
system.mem_ctrls.perBankRdBursts::4              6492                       # Per bank write bursts
system.mem_ctrls.perBankRdBursts::5              6338                       # Per bank write bursts
system.mem_ctrls.perBankRdBursts::6              6436                       # Per bank write bursts
system.mem_ctrls.perBankRdBursts::7              6342                       # Per bank write bursts
system.mem_ctrls.perBankRdBursts::8              6328                       # Per bank write bursts
system.mem_ctrls.perBankRdBursts::9              6352                       # Per bank write bursts
system.mem_ctrls.perBankRdBursts::10             6356                       # Per bank write bursts
system.mem_ctrls.perBankRdBursts::11             6904                       # Per bank write bursts
system.mem_ctrls.perBankRdBursts::12             7514                       # Per bank write bursts
system.mem_ctrls.perBankRdBursts::13             6912                       # Per bank write bursts
system.mem_ctrls.perBankRdBursts::14             6336                       # Per bank write bursts
system.mem_ctrls.perBankRdBursts::15             6346                       # Per bank write bursts
system.mem_ctrls.perBankWrBursts::0               192                       # Per bank write bursts
system.mem_ctrls.perBankWrBursts::1               260                       # Per bank write bursts
system.mem_ctrls.perBankWrBursts::2               200                       # Per bank write bursts
system.mem_ctrls.perBankWrBursts::3               724                       # Per bank write bursts
system.mem_ctrls.perBankWrBursts::4              1286                       # Per bank write bursts
system.mem_ctrls.perBankWrBursts::5               631                       # Per bank write bursts
system.mem_ctrls.perBankWrBursts::6                 0                       # Per bank write bursts
system.mem_ctrls.perBankWrBursts::7                 0                       # Per bank write bursts
system.mem_ctrls.perBankWrBursts::8                 0                       # Per bank write bursts
system.mem_ctrls.perBankWrBursts::9                 0                       # Per bank write bursts
system.mem_ctrls.perBankWrBursts::10                0                       # Per bank write bursts
system.mem_ctrls.perBankWrBursts::11              600                       # Per bank write bursts
system.mem_ctrls.perBankWrBursts::12             1282                       # Per bank write bursts
system.mem_ctrls.perBankWrBursts::13              738                       # Per bank write bursts
system.mem_ctrls.perBankWrBursts::14              128                       # Per bank write bursts
system.mem_ctrls.perBankWrBursts::15              138                       # Per bank write bursts
system.mem_ctrls.numRdRetry                       538                       # Number of times read queue was full causing retry
system.mem_ctrls.numWrRetry                      5445                       # Number of times write queue was full causing retry
system.mem_ctrls.totGap                    6670691500                       # Total gap between requests
system.mem_ctrls.readPktSize::0                     0                       # Read request sizes (log2)
system.mem_ctrls.readPktSize::1                     0                       # Read request sizes (log2)
system.mem_ctrls.readPktSize::2                     0                       # Read request sizes (log2)
system.mem_ctrls.readPktSize::3                     0                       # Read request sizes (log2)
system.mem_ctrls.readPktSize::4                     0                       # Read request sizes (log2)
system.mem_ctrls.readPktSize::5                     0                       # Read request sizes (log2)
system.mem_ctrls.readPktSize::6                104968                       # Read request sizes (log2)
system.mem_ctrls.writePktSize::0                    0                       # Write request sizes (log2)
system.mem_ctrls.writePktSize::1                    0                       # Write request sizes (log2)
system.mem_ctrls.writePktSize::2                    0                       # Write request sizes (log2)
system.mem_ctrls.writePktSize::3                    0                       # Write request sizes (log2)
system.mem_ctrls.writePktSize::4                    0                       # Write request sizes (log2)
system.mem_ctrls.writePktSize::5                    0                       # Write request sizes (log2)
system.mem_ctrls.writePktSize::6                 6196                       # Write request sizes (log2)
system.mem_ctrls.rdQLenPdf::0                   51721                       # What read queue length does an incoming req see
system.mem_ctrls.rdQLenPdf::1                   51777                       # What read queue length does an incoming req see
system.mem_ctrls.rdQLenPdf::2                     244                       # What read queue length does an incoming req see
system.mem_ctrls.rdQLenPdf::3                     194                       # What read queue length does an incoming req see
system.mem_ctrls.rdQLenPdf::4                      89                       # What read queue length does an incoming req see
system.mem_ctrls.rdQLenPdf::5                      86                       # What read queue length does an incoming req see
system.mem_ctrls.rdQLenPdf::6                      30                       # What read queue length does an incoming req see
system.mem_ctrls.rdQLenPdf::7                      30                       # What read queue length does an incoming req see
system.mem_ctrls.rdQLenPdf::8                      16                       # What read queue length does an incoming req see
system.mem_ctrls.rdQLenPdf::9                      15                       # What read queue length does an incoming req see
system.mem_ctrls.rdQLenPdf::10                     14                       # What read queue length does an incoming req see
system.mem_ctrls.rdQLenPdf::11                     15                       # What read queue length does an incoming req see
system.mem_ctrls.rdQLenPdf::12                     12                       # What read queue length does an incoming req see
system.mem_ctrls.rdQLenPdf::13                     14                       # What read queue length does an incoming req see
system.mem_ctrls.rdQLenPdf::14                     11                       # What read queue length does an incoming req see
system.mem_ctrls.rdQLenPdf::15                      8                       # What read queue length does an incoming req see
system.mem_ctrls.rdQLenPdf::16                      9                       # What read queue length does an incoming req see
system.mem_ctrls.rdQLenPdf::17                      8                       # What read queue length does an incoming req see
system.mem_ctrls.rdQLenPdf::18                      9                       # What read queue length does an incoming req see
system.mem_ctrls.rdQLenPdf::19                     10                       # What read queue length does an incoming req see
system.mem_ctrls.rdQLenPdf::20                      9                       # What read queue length does an incoming req see
system.mem_ctrls.rdQLenPdf::21                     11                       # What read queue length does an incoming req see
system.mem_ctrls.rdQLenPdf::22                      9                       # What read queue length does an incoming req see
system.mem_ctrls.rdQLenPdf::23                      8                       # What read queue length does an incoming req see
system.mem_ctrls.rdQLenPdf::24                      7                       # What read queue length does an incoming req see
system.mem_ctrls.rdQLenPdf::25                      5                       # What read queue length does an incoming req see
system.mem_ctrls.rdQLenPdf::26                      6                       # What read queue length does an incoming req see
system.mem_ctrls.rdQLenPdf::27                      6                       # What read queue length does an incoming req see
system.mem_ctrls.rdQLenPdf::28                      4                       # What read queue length does an incoming req see
system.mem_ctrls.rdQLenPdf::29                      5                       # What read queue length does an incoming req see
system.mem_ctrls.rdQLenPdf::30                    274                       # What read queue length does an incoming req see
system.mem_ctrls.rdQLenPdf::31                    271                       # What read queue length does an incoming req see
system.mem_ctrls.wrQLenPdf::0                       1                       # What write queue length does an incoming req see
system.mem_ctrls.wrQLenPdf::1                       1                       # What write queue length does an incoming req see
system.mem_ctrls.wrQLenPdf::2                       1                       # What write queue length does an incoming req see
system.mem_ctrls.wrQLenPdf::3                       1                       # What write queue length does an incoming req see
system.mem_ctrls.wrQLenPdf::4                       1                       # What write queue length does an incoming req see
system.mem_ctrls.wrQLenPdf::5                       1                       # What write queue length does an incoming req see
system.mem_ctrls.wrQLenPdf::6                       1                       # What write queue length does an incoming req see
system.mem_ctrls.wrQLenPdf::7                       1                       # What write queue length does an incoming req see
system.mem_ctrls.wrQLenPdf::8                       1                       # What write queue length does an incoming req see
system.mem_ctrls.wrQLenPdf::9                       1                       # What write queue length does an incoming req see
system.mem_ctrls.wrQLenPdf::10                      1                       # What write queue length does an incoming req see
system.mem_ctrls.wrQLenPdf::11                      1                       # What write queue length does an incoming req see
system.mem_ctrls.wrQLenPdf::12                      1                       # What write queue length does an incoming req see
system.mem_ctrls.wrQLenPdf::13                      1                       # What write queue length does an incoming req see
system.mem_ctrls.wrQLenPdf::14                      1                       # What write queue length does an incoming req see
system.mem_ctrls.wrQLenPdf::15                     11                       # What write queue length does an incoming req see
system.mem_ctrls.wrQLenPdf::16                     11                       # What write queue length does an incoming req see
system.mem_ctrls.wrQLenPdf::17                     11                       # What write queue length does an incoming req see
system.mem_ctrls.wrQLenPdf::18                     11                       # What write queue length does an incoming req see
system.mem_ctrls.wrQLenPdf::19                     11                       # What write queue length does an incoming req see
system.mem_ctrls.wrQLenPdf::20                     11                       # What write queue length does an incoming req see
system.mem_ctrls.wrQLenPdf::21                     11                       # What write queue length does an incoming req see
system.mem_ctrls.wrQLenPdf::22                     11                       # What write queue length does an incoming req see
system.mem_ctrls.wrQLenPdf::23                     11                       # What write queue length does an incoming req see
system.mem_ctrls.wrQLenPdf::24                     11                       # What write queue length does an incoming req see
system.mem_ctrls.wrQLenPdf::25                     11                       # What write queue length does an incoming req see
system.mem_ctrls.wrQLenPdf::26                     11                       # What write queue length does an incoming req see
system.mem_ctrls.wrQLenPdf::27                     11                       # What write queue length does an incoming req see
system.mem_ctrls.wrQLenPdf::28                     11                       # What write queue length does an incoming req see
system.mem_ctrls.wrQLenPdf::29                     21                       # What write queue length does an incoming req see
system.mem_ctrls.wrQLenPdf::30                     22                       # What write queue length does an incoming req see
system.mem_ctrls.wrQLenPdf::31                     22                       # What write queue length does an incoming req see
system.mem_ctrls.wrQLenPdf::32                     27                       # What write queue length does an incoming req see
system.mem_ctrls.wrQLenPdf::33                     18                       # What write queue length does an incoming req see
system.mem_ctrls.wrQLenPdf::34                     22                       # What write queue length does an incoming req see
system.mem_ctrls.wrQLenPdf::35                     21                       # What write queue length does an incoming req see
system.mem_ctrls.wrQLenPdf::36                     25                       # What write queue length does an incoming req see
system.mem_ctrls.wrQLenPdf::37                     20                       # What write queue length does an incoming req see
system.mem_ctrls.wrQLenPdf::38                     13                       # What write queue length does an incoming req see
system.mem_ctrls.wrQLenPdf::39                     19                       # What write queue length does an incoming req see
system.mem_ctrls.wrQLenPdf::40                     16                       # What write queue length does an incoming req see
system.mem_ctrls.wrQLenPdf::41                     16                       # What write queue length does an incoming req see
system.mem_ctrls.wrQLenPdf::42                     20                       # What write queue length does an incoming req see
system.mem_ctrls.wrQLenPdf::43                     14                       # What write queue length does an incoming req see
system.mem_ctrls.wrQLenPdf::44                     14                       # What write queue length does an incoming req see
system.mem_ctrls.wrQLenPdf::45                     12                       # What write queue length does an incoming req see
system.mem_ctrls.wrQLenPdf::46                     13                       # What write queue length does an incoming req see
system.mem_ctrls.wrQLenPdf::47                     13                       # What write queue length does an incoming req see
system.mem_ctrls.wrQLenPdf::48                     12                       # What write queue length does an incoming req see
system.mem_ctrls.wrQLenPdf::49                     19                       # What write queue length does an incoming req see
system.mem_ctrls.wrQLenPdf::50                     11                       # What write queue length does an incoming req see
system.mem_ctrls.wrQLenPdf::51                     12                       # What write queue length does an incoming req see
system.mem_ctrls.wrQLenPdf::52                     22                       # What write queue length does an incoming req see
system.mem_ctrls.wrQLenPdf::53                     12                       # What write queue length does an incoming req see
system.mem_ctrls.wrQLenPdf::54                     12                       # What write queue length does an incoming req see
system.mem_ctrls.wrQLenPdf::55                     12                       # What write queue length does an incoming req see
system.mem_ctrls.wrQLenPdf::56                     11                       # What write queue length does an incoming req see
system.mem_ctrls.wrQLenPdf::57                     20                       # What write queue length does an incoming req see
system.mem_ctrls.wrQLenPdf::58                     11                       # What write queue length does an incoming req see
system.mem_ctrls.wrQLenPdf::59                     12                       # What write queue length does an incoming req see
system.mem_ctrls.wrQLenPdf::60                     17                       # What write queue length does an incoming req see
system.mem_ctrls.wrQLenPdf::61                     11                       # What write queue length does an incoming req see
system.mem_ctrls.wrQLenPdf::62                   2744                       # What write queue length does an incoming req see
system.mem_ctrls.wrQLenPdf::63                   2739                       # What write queue length does an incoming req see
system.mem_ctrls.bytesPerActivate::samples        26391                       # Bytes accessed per row activation
system.mem_ctrls.bytesPerActivate::mean    269.357281                       # Bytes accessed per row activation
system.mem_ctrls.bytesPerActivate::gmean   256.735476                       # Bytes accessed per row activation
system.mem_ctrls.bytesPerActivate::stdev   121.233465                       # Bytes accessed per row activation
system.mem_ctrls.bytesPerActivate::0-127            3      0.01%      0.01% # Bytes accessed per row activation
system.mem_ctrls.bytesPerActivate::128-255         1316      4.99%      5.00% # Bytes accessed per row activation
system.mem_ctrls.bytesPerActivate::256-383        24225     91.79%     96.79% # Bytes accessed per row activation
system.mem_ctrls.bytesPerActivate::384-511          114      0.43%     97.22% # Bytes accessed per row activation
system.mem_ctrls.bytesPerActivate::512-639           53      0.20%     97.42% # Bytes accessed per row activation
system.mem_ctrls.bytesPerActivate::640-767           39      0.15%     97.57% # Bytes accessed per row activation
system.mem_ctrls.bytesPerActivate::768-895           42      0.16%     97.73% # Bytes accessed per row activation
system.mem_ctrls.bytesPerActivate::896-1023           27      0.10%     97.83% # Bytes accessed per row activation
system.mem_ctrls.bytesPerActivate::1024-1151          572      2.17%    100.00% # Bytes accessed per row activation
system.mem_ctrls.bytesPerActivate::total        26391                       # Bytes accessed per row activation
system.mem_ctrls.rdPerTurnAround::samples           11                       # Reads before turning the bus around for writes
system.mem_ctrls.rdPerTurnAround::mean    9533.545455                       # Reads before turning the bus around for writes
system.mem_ctrls.rdPerTurnAround::gmean    563.463159                       # Reads before turning the bus around for writes
system.mem_ctrls.rdPerTurnAround::stdev  30237.422329                       # Reads before turning the bus around for writes
system.mem_ctrls.rdPerTurnAround::0-4095           10     90.91%     90.91% # Reads before turning the bus around for writes
system.mem_ctrls.rdPerTurnAround::98304-102399            1      9.09%    100.00% # Reads before turning the bus around for writes
system.mem_ctrls.rdPerTurnAround::total            11                       # Reads before turning the bus around for writes
system.mem_ctrls.wrPerTurnAround::samples           11                       # Writes before turning the bus around for reads
system.mem_ctrls.wrPerTurnAround::mean     561.727273                       # Writes before turning the bus around for reads
system.mem_ctrls.wrPerTurnAround::gmean    548.715507                       # Writes before turning the bus around for reads
system.mem_ctrls.wrPerTurnAround::stdev    153.062138                       # Writes before turning the bus around for reads
system.mem_ctrls.wrPerTurnAround::512-527            9     81.82%     81.82% # Writes before turning the bus around for reads
system.mem_ctrls.wrPerTurnAround::528-543            1      9.09%     90.91% # Writes before turning the bus around for reads
system.mem_ctrls.wrPerTurnAround::1008-1023            1      9.09%    100.00% # Writes before turning the bus around for reads
system.mem_ctrls.wrPerTurnAround::total            11                       # Writes before turning the bus around for reads
system.mem_ctrls.totQLat                   1863050203                       # Total ticks spent queuing
system.mem_ctrls.totMemAccLat              3830431453                       # Total ticks spent from burst creation until serviced by the DRAM
system.mem_ctrls.totBusLat                  524635000                       # Total ticks spent in databus transfers
system.mem_ctrls.avgQLat                     17755.68                       # Average queueing delay per DRAM burst
system.mem_ctrls.avgBusLat                    5000.00                       # Average bus latency per DRAM burst
system.mem_ctrls.avgMemAccLat                36505.68                       # Average memory access latency per DRAM burst
system.mem_ctrls.avgRdBW                      1006.68                       # Average DRAM read bandwidth in MiByte/s
system.mem_ctrls.avgWrBW                        59.28                       # Average achieved write bandwidth in MiByte/s
system.mem_ctrls.avgRdBWSys                   1007.07                       # Average system read bandwidth in MiByte/s
system.mem_ctrls.avgWrBWSys                     59.45                       # Average system write bandwidth in MiByte/s
system.mem_ctrls.peakBW                      12800.00                       # Theoretical peak bandwidth in MiByte/s
system.mem_ctrls.busUtil                         8.33                       # Data bus utilization in percentage
system.mem_ctrls.busUtilRead                     7.86                       # Data bus utilization in percentage for reads
system.mem_ctrls.busUtilWrite                    0.46                       # Data bus utilization in percentage for writes
system.mem_ctrls.avgRdQLen                       2.07                       # Average read queue length when enqueuing
system.mem_ctrls.avgWrQLen                      35.00                       # Average write queue length when enqueuing
system.mem_ctrls.readRowHits                    78945                       # Number of row buffer hits during reads
system.mem_ctrls.writeRowHits                    5760                       # Number of row buffer hits during writes
system.mem_ctrls.readRowHitRate                 75.24                       # Row buffer hit rate for reads
system.mem_ctrls.writeRowHitRate                92.99                       # Row buffer hit rate for writes
system.mem_ctrls.avgGap                     120015.32                       # Average gap between requests
system.mem_ctrls.pageHitRate                    76.23                       # Row buffer hit rate, read and write combined
system.mem_ctrls_0.actEnergy                 99912960                       # Energy for activate commands per rank (pJ)
system.mem_ctrls_0.preEnergy                 54516000                       # Energy for precharge commands per rank (pJ)
system.mem_ctrls_0.readEnergy               404281800                       # Energy for read commands per rank (pJ)
system.mem_ctrls_0.writeEnergy               21338640                       # Energy for write commands per rank (pJ)
system.mem_ctrls_0.refreshEnergy            435327360                       # Energy for refresh commands per rank (pJ)
system.mem_ctrls_0.actBackEnergy           3502652850                       # Energy for active background per rank (pJ)
system.mem_ctrls_0.preBackEnergy            926663250                       # Energy for precharge background per rank (pJ)
system.mem_ctrls_0.totalEnergy             5444692860                       # Total energy per rank (pJ)
system.mem_ctrls_0.averagePower            816.874298                       # Core power per rank (mW)
system.mem_ctrls_0.memoryStateTime::IDLE   1524814750                       # Time in different power states
system.mem_ctrls_0.memoryStateTime::REF     222560000                       # Time in different power states
system.mem_ctrls_0.memoryStateTime::PRE_PDN            0                       # Time in different power states
system.mem_ctrls_0.memoryStateTime::ACT    4920841750                       # Time in different power states
system.mem_ctrls_0.memoryStateTime::ACT_PDN            0                       # Time in different power states
system.mem_ctrls_1.actEnergy                 99580320                       # Energy for activate commands per rank (pJ)
system.mem_ctrls_1.preEnergy                 54334500                       # Energy for precharge commands per rank (pJ)
system.mem_ctrls_1.readEnergy               413696400                       # Energy for read commands per rank (pJ)
system.mem_ctrls_1.writeEnergy               18701280                       # Energy for write commands per rank (pJ)
system.mem_ctrls_1.refreshEnergy            435327360                       # Energy for refresh commands per rank (pJ)
system.mem_ctrls_1.actBackEnergy           3381281325                       # Energy for active background per rank (pJ)
system.mem_ctrls_1.preBackEnergy           1033129500                       # Energy for precharge background per rank (pJ)
system.mem_ctrls_1.totalEnergy             5436050685                       # Total energy per rank (pJ)
system.mem_ctrls_1.averagePower            815.577702                       # Core power per rank (mW)
system.mem_ctrls_1.memoryStateTime::IDLE   1703165750                       # Time in different power states
system.mem_ctrls_1.memoryStateTime::REF     222560000                       # Time in different power states
system.mem_ctrls_1.memoryStateTime::PRE_PDN            0                       # Time in different power states
system.mem_ctrls_1.memoryStateTime::ACT    4742715750                       # Time in different power states
system.mem_ctrls_1.memoryStateTime::ACT_PDN            0                       # Time in different power states
system.ruby_clk_domain.clock                      500                       # Clock period in ticks
system.ruby.phys_mem.bytes_read::cpu.inst     13843616                       # Number of bytes read from this memory
system.ruby.phys_mem.bytes_read::cpu.data      2995399                       # Number of bytes read from this memory
system.ruby.phys_mem.bytes_read::gpu.ce        196932                       # Number of bytes read from this memory
system.ruby.phys_mem.bytes_read::gpu.shader_cores00.data       216064                       # Number of bytes read from this memory
system.ruby.phys_mem.bytes_read::gpu.shader_cores00.inst         2528                       # Number of bytes read from this memory
system.ruby.phys_mem.bytes_read::gpu.shader_cores01.data       650624                       # Number of bytes read from this memory
system.ruby.phys_mem.bytes_read::gpu.shader_cores01.inst        51424                       # Number of bytes read from this memory
system.ruby.phys_mem.bytes_read::gpu.shader_cores02.data       704928                       # Number of bytes read from this memory
system.ruby.phys_mem.bytes_read::gpu.shader_cores02.inst        49424                       # Number of bytes read from this memory
system.ruby.phys_mem.bytes_read::gpu.shader_cores03.data       797024                       # Number of bytes read from this memory
system.ruby.phys_mem.bytes_read::gpu.shader_cores03.inst        66888                       # Number of bytes read from this memory
system.ruby.phys_mem.bytes_read::gpu.shader_cores04.data       946976                       # Number of bytes read from this memory
system.ruby.phys_mem.bytes_read::gpu.shader_cores04.inst        79936                       # Number of bytes read from this memory
system.ruby.phys_mem.bytes_read::gpu.shader_cores05.data      1115776                       # Number of bytes read from this memory
system.ruby.phys_mem.bytes_read::gpu.shader_cores05.inst        94656                       # Number of bytes read from this memory
system.ruby.phys_mem.bytes_read::gpu.shader_cores06.data      1314144                       # Number of bytes read from this memory
system.ruby.phys_mem.bytes_read::gpu.shader_cores06.inst       114024                       # Number of bytes read from this memory
system.ruby.phys_mem.bytes_read::gpu.shader_cores07.data      1377696                       # Number of bytes read from this memory
system.ruby.phys_mem.bytes_read::gpu.shader_cores07.inst       113688                       # Number of bytes read from this memory
system.ruby.phys_mem.bytes_read::gpu.shader_cores08.data      1433600                       # Number of bytes read from this memory
system.ruby.phys_mem.bytes_read::gpu.shader_cores08.inst       117760                       # Number of bytes read from this memory
system.ruby.phys_mem.bytes_read::gpu.shader_cores09.data      1199328                       # Number of bytes read from this memory
system.ruby.phys_mem.bytes_read::gpu.shader_cores09.inst        99304                       # Number of bytes read from this memory
system.ruby.phys_mem.bytes_read::gpu.shader_cores10.data       892672                       # Number of bytes read from this memory
system.ruby.phys_mem.bytes_read::gpu.shader_cores10.inst        61280                       # Number of bytes read from this memory
system.ruby.phys_mem.bytes_read::gpu.shader_cores11.data       487264                       # Number of bytes read from this memory
system.ruby.phys_mem.bytes_read::gpu.shader_cores11.inst        31360                       # Number of bytes read from this memory
system.ruby.phys_mem.bytes_read::gpu.shader_cores12.data       441376                       # Number of bytes read from this memory
system.ruby.phys_mem.bytes_read::gpu.shader_cores12.inst        17504                       # Number of bytes read from this memory
system.ruby.phys_mem.bytes_read::gpu.shader_cores13.data       400576                       # Number of bytes read from this memory
system.ruby.phys_mem.bytes_read::gpu.shader_cores13.inst        17920                       # Number of bytes read from this memory
system.ruby.phys_mem.bytes_read::gpu.shader_cores14.data       246784                       # Number of bytes read from this memory
system.ruby.phys_mem.bytes_read::gpu.shader_cores14.inst         7440                       # Number of bytes read from this memory
system.ruby.phys_mem.bytes_read::gpu.shader_cores15.data       221056                       # Number of bytes read from this memory
system.ruby.phys_mem.bytes_read::gpu.shader_cores15.inst         6528                       # Number of bytes read from this memory
system.ruby.phys_mem.bytes_read::total       30413499                       # Number of bytes read from this memory
system.ruby.phys_mem.bytes_inst_read::cpu.inst     13843616                       # Number of instructions bytes read from this memory
system.ruby.phys_mem.bytes_inst_read::gpu.shader_cores00.inst         2528                       # Number of instructions bytes read from this memory
system.ruby.phys_mem.bytes_inst_read::gpu.shader_cores01.inst        51424                       # Number of instructions bytes read from this memory
system.ruby.phys_mem.bytes_inst_read::gpu.shader_cores02.inst        49424                       # Number of instructions bytes read from this memory
system.ruby.phys_mem.bytes_inst_read::gpu.shader_cores03.inst        66888                       # Number of instructions bytes read from this memory
system.ruby.phys_mem.bytes_inst_read::gpu.shader_cores04.inst        79936                       # Number of instructions bytes read from this memory
system.ruby.phys_mem.bytes_inst_read::gpu.shader_cores05.inst        94656                       # Number of instructions bytes read from this memory
system.ruby.phys_mem.bytes_inst_read::gpu.shader_cores06.inst       114024                       # Number of instructions bytes read from this memory
system.ruby.phys_mem.bytes_inst_read::gpu.shader_cores07.inst       113688                       # Number of instructions bytes read from this memory
system.ruby.phys_mem.bytes_inst_read::gpu.shader_cores08.inst       117760                       # Number of instructions bytes read from this memory
system.ruby.phys_mem.bytes_inst_read::gpu.shader_cores09.inst        99304                       # Number of instructions bytes read from this memory
system.ruby.phys_mem.bytes_inst_read::gpu.shader_cores10.inst        61280                       # Number of instructions bytes read from this memory
system.ruby.phys_mem.bytes_inst_read::gpu.shader_cores11.inst        31360                       # Number of instructions bytes read from this memory
system.ruby.phys_mem.bytes_inst_read::gpu.shader_cores12.inst        17504                       # Number of instructions bytes read from this memory
system.ruby.phys_mem.bytes_inst_read::gpu.shader_cores13.inst        17920                       # Number of instructions bytes read from this memory
system.ruby.phys_mem.bytes_inst_read::gpu.shader_cores14.inst         7440                       # Number of instructions bytes read from this memory
system.ruby.phys_mem.bytes_inst_read::gpu.shader_cores15.inst         6528                       # Number of instructions bytes read from this memory
system.ruby.phys_mem.bytes_inst_read::total     14775280                       # Number of instructions bytes read from this memory
system.ruby.phys_mem.bytes_written::cpu.data      1162384                       # Number of bytes written to this memory
system.ruby.phys_mem.bytes_written::gpu.ce       196932                       # Number of bytes written to this memory
system.ruby.phys_mem.bytes_written::gpu.shader_cores00.data        61440                       # Number of bytes written to this memory
system.ruby.phys_mem.bytes_written::gpu.shader_cores01.data        61440                       # Number of bytes written to this memory
system.ruby.phys_mem.bytes_written::gpu.shader_cores02.data        61440                       # Number of bytes written to this memory
system.ruby.phys_mem.bytes_written::gpu.shader_cores03.data        61440                       # Number of bytes written to this memory
system.ruby.phys_mem.bytes_written::gpu.shader_cores04.data        61440                       # Number of bytes written to this memory
system.ruby.phys_mem.bytes_written::gpu.shader_cores05.data        61440                       # Number of bytes written to this memory
system.ruby.phys_mem.bytes_written::gpu.shader_cores06.data        61440                       # Number of bytes written to this memory
system.ruby.phys_mem.bytes_written::gpu.shader_cores07.data        61440                       # Number of bytes written to this memory
system.ruby.phys_mem.bytes_written::gpu.shader_cores08.data        61440                       # Number of bytes written to this memory
system.ruby.phys_mem.bytes_written::gpu.shader_cores09.data        61440                       # Number of bytes written to this memory
system.ruby.phys_mem.bytes_written::gpu.shader_cores10.data        61440                       # Number of bytes written to this memory
system.ruby.phys_mem.bytes_written::gpu.shader_cores11.data        61440                       # Number of bytes written to this memory
system.ruby.phys_mem.bytes_written::gpu.shader_cores12.data        61440                       # Number of bytes written to this memory
system.ruby.phys_mem.bytes_written::gpu.shader_cores13.data        61440                       # Number of bytes written to this memory
system.ruby.phys_mem.bytes_written::gpu.shader_cores14.data        61440                       # Number of bytes written to this memory
system.ruby.phys_mem.bytes_written::gpu.shader_cores15.data        61440                       # Number of bytes written to this memory
system.ruby.phys_mem.bytes_written::total      2342356                       # Number of bytes written to this memory
system.ruby.phys_mem.num_reads::cpu.inst      1730452                       # Number of read requests responded to by this memory
system.ruby.phys_mem.num_reads::cpu.data       596308                       # Number of read requests responded to by this memory
system.ruby.phys_mem.num_reads::gpu.ce           1541                       # Number of read requests responded to by this memory
system.ruby.phys_mem.num_reads::gpu.shader_cores00.data         3848                       # Number of read requests responded to by this memory
system.ruby.phys_mem.num_reads::gpu.shader_cores00.inst          163                       # Number of read requests responded to by this memory
system.ruby.phys_mem.num_reads::gpu.shader_cores01.data        16981                       # Number of read requests responded to by this memory
system.ruby.phys_mem.num_reads::gpu.shader_cores01.inst         3214                       # Number of read requests responded to by this memory
system.ruby.phys_mem.num_reads::gpu.shader_cores02.data        18282                       # Number of read requests responded to by this memory
system.ruby.phys_mem.num_reads::gpu.shader_cores02.inst         3089                       # Number of read requests responded to by this memory
system.ruby.phys_mem.num_reads::gpu.shader_cores03.data        20841                       # Number of read requests responded to by this memory
system.ruby.phys_mem.num_reads::gpu.shader_cores03.inst         4181                       # Number of read requests responded to by this memory
system.ruby.phys_mem.num_reads::gpu.shader_cores04.data        24355                       # Number of read requests responded to by this memory
system.ruby.phys_mem.num_reads::gpu.shader_cores04.inst         4997                       # Number of read requests responded to by this memory
system.ruby.phys_mem.num_reads::gpu.shader_cores05.data        28686                       # Number of read requests responded to by this memory
system.ruby.phys_mem.num_reads::gpu.shader_cores05.inst         5916                       # Number of read requests responded to by this memory
system.ruby.phys_mem.num_reads::gpu.shader_cores06.data        32408                       # Number of read requests responded to by this memory
system.ruby.phys_mem.num_reads::gpu.shader_cores06.inst         7128                       # Number of read requests responded to by this memory
system.ruby.phys_mem.num_reads::gpu.shader_cores07.data        32954                       # Number of read requests responded to by this memory
system.ruby.phys_mem.num_reads::gpu.shader_cores07.inst         7107                       # Number of read requests responded to by this memory
system.ruby.phys_mem.num_reads::gpu.shader_cores08.data        33872                       # Number of read requests responded to by this memory
system.ruby.phys_mem.num_reads::gpu.shader_cores08.inst         7364                       # Number of read requests responded to by this memory
system.ruby.phys_mem.num_reads::gpu.shader_cores09.data        29773                       # Number of read requests responded to by this memory
system.ruby.phys_mem.num_reads::gpu.shader_cores09.inst         6208                       # Number of read requests responded to by this memory
system.ruby.phys_mem.num_reads::gpu.shader_cores10.data        23736                       # Number of read requests responded to by this memory
system.ruby.phys_mem.num_reads::gpu.shader_cores10.inst         3830                       # Number of read requests responded to by this memory
system.ruby.phys_mem.num_reads::gpu.shader_cores11.data        12281                       # Number of read requests responded to by this memory
system.ruby.phys_mem.num_reads::gpu.shader_cores11.inst         1960                       # Number of read requests responded to by this memory
system.ruby.phys_mem.num_reads::gpu.shader_cores12.data        10889                       # Number of read requests responded to by this memory
system.ruby.phys_mem.num_reads::gpu.shader_cores12.inst         1094                       # Number of read requests responded to by this memory
system.ruby.phys_mem.num_reads::gpu.shader_cores13.data         9614                       # Number of read requests responded to by this memory
system.ruby.phys_mem.num_reads::gpu.shader_cores13.inst         1125                       # Number of read requests responded to by this memory
system.ruby.phys_mem.num_reads::gpu.shader_cores14.data         4808                       # Number of read requests responded to by this memory
system.ruby.phys_mem.num_reads::gpu.shader_cores14.inst          470                       # Number of read requests responded to by this memory
system.ruby.phys_mem.num_reads::gpu.shader_cores15.data         4004                       # Number of read requests responded to by this memory
system.ruby.phys_mem.num_reads::gpu.shader_cores15.inst          413                       # Number of read requests responded to by this memory
system.ruby.phys_mem.num_reads::total         2693892                       # Number of read requests responded to by this memory
system.ruby.phys_mem.num_writes::cpu.data       247425                       # Number of write requests responded to by this memory
system.ruby.phys_mem.num_writes::gpu.ce          1550                       # Number of write requests responded to by this memory
system.ruby.phys_mem.num_writes::gpu.shader_cores00.data        12880                       # Number of write requests responded to by this memory
system.ruby.phys_mem.num_writes::gpu.shader_cores01.data        12880                       # Number of write requests responded to by this memory
system.ruby.phys_mem.num_writes::gpu.shader_cores02.data        12880                       # Number of write requests responded to by this memory
system.ruby.phys_mem.num_writes::gpu.shader_cores03.data        12880                       # Number of write requests responded to by this memory
system.ruby.phys_mem.num_writes::gpu.shader_cores04.data        12880                       # Number of write requests responded to by this memory
system.ruby.phys_mem.num_writes::gpu.shader_cores05.data        12880                       # Number of write requests responded to by this memory
system.ruby.phys_mem.num_writes::gpu.shader_cores06.data        12880                       # Number of write requests responded to by this memory
system.ruby.phys_mem.num_writes::gpu.shader_cores07.data        12880                       # Number of write requests responded to by this memory
system.ruby.phys_mem.num_writes::gpu.shader_cores08.data        12880                       # Number of write requests responded to by this memory
system.ruby.phys_mem.num_writes::gpu.shader_cores09.data        12880                       # Number of write requests responded to by this memory
system.ruby.phys_mem.num_writes::gpu.shader_cores10.data        12880                       # Number of write requests responded to by this memory
system.ruby.phys_mem.num_writes::gpu.shader_cores11.data        12880                       # Number of write requests responded to by this memory
system.ruby.phys_mem.num_writes::gpu.shader_cores12.data        12880                       # Number of write requests responded to by this memory
system.ruby.phys_mem.num_writes::gpu.shader_cores13.data        12880                       # Number of write requests responded to by this memory
system.ruby.phys_mem.num_writes::gpu.shader_cores14.data        12880                       # Number of write requests responded to by this memory
system.ruby.phys_mem.num_writes::gpu.shader_cores15.data        12880                       # Number of write requests responded to by this memory
system.ruby.phys_mem.num_writes::total         455055                       # Number of write requests responded to by this memory
system.ruby.phys_mem.bw_read::cpu.inst     2075266630                       # Total read bandwidth from this memory (bytes/s)
system.ruby.phys_mem.bw_read::cpu.data      449033806                       # Total read bandwidth from this memory (bytes/s)
system.ruby.phys_mem.bw_read::gpu.ce         29521652                       # Total read bandwidth from this memory (bytes/s)
system.ruby.phys_mem.bw_read::gpu.shader_cores00.data     32389688                       # Total read bandwidth from this memory (bytes/s)
system.ruby.phys_mem.bw_read::gpu.shader_cores00.inst       378967                       # Total read bandwidth from this memory (bytes/s)
system.ruby.phys_mem.bw_read::gpu.shader_cores01.data     97533641                       # Total read bandwidth from this memory (bytes/s)
system.ruby.phys_mem.bw_read::gpu.shader_cores01.inst      7708861                       # Total read bandwidth from this memory (bytes/s)
system.ruby.phys_mem.bw_read::gpu.shader_cores02.data    105674237                       # Total read bandwidth from this memory (bytes/s)
system.ruby.phys_mem.bw_read::gpu.shader_cores02.inst      7409045                       # Total read bandwidth from this memory (bytes/s)
system.ruby.phys_mem.bw_read::gpu.shader_cores03.data    119480150                       # Total read bandwidth from this memory (bytes/s)
system.ruby.phys_mem.bw_read::gpu.shader_cores03.inst     10027036                       # Total read bandwidth from this memory (bytes/s)
system.ruby.phys_mem.bw_read::gpu.shader_cores04.data    141959131                       # Total read bandwidth from this memory (bytes/s)
system.ruby.phys_mem.bw_read::gpu.shader_cores04.inst     11983033                       # Total read bandwidth from this memory (bytes/s)
system.ruby.phys_mem.bw_read::gpu.shader_cores05.data    167263575                       # Total read bandwidth from this memory (bytes/s)
system.ruby.phys_mem.bw_read::gpu.shader_cores05.inst     14189677                       # Total read bandwidth from this memory (bytes/s)
system.ruby.phys_mem.bw_read::gpu.shader_cores06.data    197000494                       # Total read bandwidth from this memory (bytes/s)
system.ruby.phys_mem.bw_read::gpu.shader_cores06.inst     17093092                       # Total read bandwidth from this memory (bytes/s)
system.ruby.phys_mem.bw_read::gpu.shader_cores07.data    206527437                       # Total read bandwidth from this memory (bytes/s)
system.ruby.phys_mem.bw_read::gpu.shader_cores07.inst     17042723                       # Total read bandwidth from this memory (bytes/s)
system.ruby.phys_mem.bw_read::gpu.shader_cores08.data    214907885                       # Total read bandwidth from this memory (bytes/s)
system.ruby.phys_mem.bw_read::gpu.shader_cores08.inst     17653148                       # Total read bandwidth from this memory (bytes/s)
system.ruby.phys_mem.bw_read::gpu.shader_cores09.data    179788675                       # Total read bandwidth from this memory (bytes/s)
system.ruby.phys_mem.bw_read::gpu.shader_cores09.inst     14886449                       # Total read bandwidth from this memory (bytes/s)
system.ruby.phys_mem.bw_read::gpu.shader_cores10.data    133818535                       # Total read bandwidth from this memory (bytes/s)
system.ruby.phys_mem.bw_read::gpu.shader_cores10.inst      9186353                       # Total read bandwidth from this memory (bytes/s)
system.ruby.phys_mem.bw_read::gpu.shader_cores11.data     73044696                       # Total read bandwidth from this memory (bytes/s)
system.ruby.phys_mem.bw_read::gpu.shader_cores11.inst      4701110                       # Total read bandwidth from this memory (bytes/s)
system.ruby.phys_mem.bw_read::gpu.shader_cores12.data     66165725                       # Total read bandwidth from this memory (bytes/s)
system.ruby.phys_mem.bw_read::gpu.shader_cores12.inst      2623987                       # Total read bandwidth from this memory (bytes/s)
system.ruby.phys_mem.bw_read::gpu.shader_cores13.data     60049485                       # Total read bandwidth from this memory (bytes/s)
system.ruby.phys_mem.bw_read::gpu.shader_cores13.inst      2686349                       # Total read bandwidth from this memory (bytes/s)
system.ruby.phys_mem.bw_read::gpu.shader_cores14.data     36994857                       # Total read bandwidth from this memory (bytes/s)
system.ruby.phys_mem.bw_read::gpu.shader_cores14.inst      1115314                       # Total read bandwidth from this memory (bytes/s)
system.ruby.phys_mem.bw_read::gpu.shader_cores15.data     33138028                       # Total read bandwidth from this memory (bytes/s)
system.ruby.phys_mem.bw_read::gpu.shader_cores15.inst       978598                       # Total read bandwidth from this memory (bytes/s)
system.ruby.phys_mem.bw_read::total        4559222068                       # Total read bandwidth from this memory (bytes/s)
system.ruby.phys_mem.bw_inst_read::cpu.inst   2075266630                       # Instruction read bandwidth from this memory (bytes/s)
system.ruby.phys_mem.bw_inst_read::gpu.shader_cores00.inst       378967                       # Instruction read bandwidth from this memory (bytes/s)
system.ruby.phys_mem.bw_inst_read::gpu.shader_cores01.inst      7708861                       # Instruction read bandwidth from this memory (bytes/s)
system.ruby.phys_mem.bw_inst_read::gpu.shader_cores02.inst      7409045                       # Instruction read bandwidth from this memory (bytes/s)
system.ruby.phys_mem.bw_inst_read::gpu.shader_cores03.inst     10027036                       # Instruction read bandwidth from this memory (bytes/s)
system.ruby.phys_mem.bw_inst_read::gpu.shader_cores04.inst     11983033                       # Instruction read bandwidth from this memory (bytes/s)
system.ruby.phys_mem.bw_inst_read::gpu.shader_cores05.inst     14189677                       # Instruction read bandwidth from this memory (bytes/s)
system.ruby.phys_mem.bw_inst_read::gpu.shader_cores06.inst     17093092                       # Instruction read bandwidth from this memory (bytes/s)
system.ruby.phys_mem.bw_inst_read::gpu.shader_cores07.inst     17042723                       # Instruction read bandwidth from this memory (bytes/s)
system.ruby.phys_mem.bw_inst_read::gpu.shader_cores08.inst     17653148                       # Instruction read bandwidth from this memory (bytes/s)
system.ruby.phys_mem.bw_inst_read::gpu.shader_cores09.inst     14886449                       # Instruction read bandwidth from this memory (bytes/s)
system.ruby.phys_mem.bw_inst_read::gpu.shader_cores10.inst      9186353                       # Instruction read bandwidth from this memory (bytes/s)
system.ruby.phys_mem.bw_inst_read::gpu.shader_cores11.inst      4701110                       # Instruction read bandwidth from this memory (bytes/s)
system.ruby.phys_mem.bw_inst_read::gpu.shader_cores12.inst      2623987                       # Instruction read bandwidth from this memory (bytes/s)
system.ruby.phys_mem.bw_inst_read::gpu.shader_cores13.inst      2686349                       # Instruction read bandwidth from this memory (bytes/s)
system.ruby.phys_mem.bw_inst_read::gpu.shader_cores14.inst      1115314                       # Instruction read bandwidth from this memory (bytes/s)
system.ruby.phys_mem.bw_inst_read::gpu.shader_cores15.inst       978598                       # Instruction read bandwidth from this memory (bytes/s)
system.ruby.phys_mem.bw_inst_read::total   2214930372                       # Instruction read bandwidth from this memory (bytes/s)
system.ruby.phys_mem.bw_write::cpu.data     174250480                       # Write bandwidth from this memory (bytes/s)
system.ruby.phys_mem.bw_write::gpu.ce        29521652                       # Write bandwidth from this memory (bytes/s)
system.ruby.phys_mem.bw_write::gpu.shader_cores00.data      9210338                       # Write bandwidth from this memory (bytes/s)
system.ruby.phys_mem.bw_write::gpu.shader_cores01.data      9210338                       # Write bandwidth from this memory (bytes/s)
system.ruby.phys_mem.bw_write::gpu.shader_cores02.data      9210338                       # Write bandwidth from this memory (bytes/s)
system.ruby.phys_mem.bw_write::gpu.shader_cores03.data      9210338                       # Write bandwidth from this memory (bytes/s)
system.ruby.phys_mem.bw_write::gpu.shader_cores04.data      9210338                       # Write bandwidth from this memory (bytes/s)
system.ruby.phys_mem.bw_write::gpu.shader_cores05.data      9210338                       # Write bandwidth from this memory (bytes/s)
system.ruby.phys_mem.bw_write::gpu.shader_cores06.data      9210338                       # Write bandwidth from this memory (bytes/s)
system.ruby.phys_mem.bw_write::gpu.shader_cores07.data      9210338                       # Write bandwidth from this memory (bytes/s)
system.ruby.phys_mem.bw_write::gpu.shader_cores08.data      9210338                       # Write bandwidth from this memory (bytes/s)
system.ruby.phys_mem.bw_write::gpu.shader_cores09.data      9210338                       # Write bandwidth from this memory (bytes/s)
system.ruby.phys_mem.bw_write::gpu.shader_cores10.data      9210338                       # Write bandwidth from this memory (bytes/s)
system.ruby.phys_mem.bw_write::gpu.shader_cores11.data      9210338                       # Write bandwidth from this memory (bytes/s)
system.ruby.phys_mem.bw_write::gpu.shader_cores12.data      9210338                       # Write bandwidth from this memory (bytes/s)
system.ruby.phys_mem.bw_write::gpu.shader_cores13.data      9210338                       # Write bandwidth from this memory (bytes/s)
system.ruby.phys_mem.bw_write::gpu.shader_cores14.data      9210338                       # Write bandwidth from this memory (bytes/s)
system.ruby.phys_mem.bw_write::gpu.shader_cores15.data      9210338                       # Write bandwidth from this memory (bytes/s)
system.ruby.phys_mem.bw_write::total        351137538                       # Write bandwidth from this memory (bytes/s)
system.ruby.phys_mem.bw_total::cpu.inst    2075266630                       # Total bandwidth to/from this memory (bytes/s)
system.ruby.phys_mem.bw_total::cpu.data     623284286                       # Total bandwidth to/from this memory (bytes/s)
system.ruby.phys_mem.bw_total::gpu.ce        59043303                       # Total bandwidth to/from this memory (bytes/s)
system.ruby.phys_mem.bw_total::gpu.shader_cores00.data     41600026                       # Total bandwidth to/from this memory (bytes/s)
system.ruby.phys_mem.bw_total::gpu.shader_cores00.inst       378967                       # Total bandwidth to/from this memory (bytes/s)
system.ruby.phys_mem.bw_total::gpu.shader_cores01.data    106743979                       # Total bandwidth to/from this memory (bytes/s)
system.ruby.phys_mem.bw_total::gpu.shader_cores01.inst      7708861                       # Total bandwidth to/from this memory (bytes/s)
system.ruby.phys_mem.bw_total::gpu.shader_cores02.data    114884575                       # Total bandwidth to/from this memory (bytes/s)
system.ruby.phys_mem.bw_total::gpu.shader_cores02.inst      7409045                       # Total bandwidth to/from this memory (bytes/s)
system.ruby.phys_mem.bw_total::gpu.shader_cores03.data    128690488                       # Total bandwidth to/from this memory (bytes/s)
system.ruby.phys_mem.bw_total::gpu.shader_cores03.inst     10027036                       # Total bandwidth to/from this memory (bytes/s)
system.ruby.phys_mem.bw_total::gpu.shader_cores04.data    151169469                       # Total bandwidth to/from this memory (bytes/s)
system.ruby.phys_mem.bw_total::gpu.shader_cores04.inst     11983033                       # Total bandwidth to/from this memory (bytes/s)
system.ruby.phys_mem.bw_total::gpu.shader_cores05.data    176473913                       # Total bandwidth to/from this memory (bytes/s)
system.ruby.phys_mem.bw_total::gpu.shader_cores05.inst     14189677                       # Total bandwidth to/from this memory (bytes/s)
system.ruby.phys_mem.bw_total::gpu.shader_cores06.data    206210832                       # Total bandwidth to/from this memory (bytes/s)
system.ruby.phys_mem.bw_total::gpu.shader_cores06.inst     17093092                       # Total bandwidth to/from this memory (bytes/s)
system.ruby.phys_mem.bw_total::gpu.shader_cores07.data    215737775                       # Total bandwidth to/from this memory (bytes/s)
system.ruby.phys_mem.bw_total::gpu.shader_cores07.inst     17042723                       # Total bandwidth to/from this memory (bytes/s)
system.ruby.phys_mem.bw_total::gpu.shader_cores08.data    224118223                       # Total bandwidth to/from this memory (bytes/s)
system.ruby.phys_mem.bw_total::gpu.shader_cores08.inst     17653148                       # Total bandwidth to/from this memory (bytes/s)
system.ruby.phys_mem.bw_total::gpu.shader_cores09.data    188999013                       # Total bandwidth to/from this memory (bytes/s)
system.ruby.phys_mem.bw_total::gpu.shader_cores09.inst     14886449                       # Total bandwidth to/from this memory (bytes/s)
system.ruby.phys_mem.bw_total::gpu.shader_cores10.data    143028873                       # Total bandwidth to/from this memory (bytes/s)
system.ruby.phys_mem.bw_total::gpu.shader_cores10.inst      9186353                       # Total bandwidth to/from this memory (bytes/s)
system.ruby.phys_mem.bw_total::gpu.shader_cores11.data     82255034                       # Total bandwidth to/from this memory (bytes/s)
system.ruby.phys_mem.bw_total::gpu.shader_cores11.inst      4701110                       # Total bandwidth to/from this memory (bytes/s)
system.ruby.phys_mem.bw_total::gpu.shader_cores12.data     75376063                       # Total bandwidth to/from this memory (bytes/s)
system.ruby.phys_mem.bw_total::gpu.shader_cores12.inst      2623987                       # Total bandwidth to/from this memory (bytes/s)
system.ruby.phys_mem.bw_total::gpu.shader_cores13.data     69259823                       # Total bandwidth to/from this memory (bytes/s)
system.ruby.phys_mem.bw_total::gpu.shader_cores13.inst      2686349                       # Total bandwidth to/from this memory (bytes/s)
system.ruby.phys_mem.bw_total::gpu.shader_cores14.data     46205195                       # Total bandwidth to/from this memory (bytes/s)
system.ruby.phys_mem.bw_total::gpu.shader_cores14.inst      1115314                       # Total bandwidth to/from this memory (bytes/s)
system.ruby.phys_mem.bw_total::gpu.shader_cores15.data     42348366                       # Total bandwidth to/from this memory (bytes/s)
system.ruby.phys_mem.bw_total::gpu.shader_cores15.inst       978598                       # Total bandwidth to/from this memory (bytes/s)
system.ruby.phys_mem.bw_total::total       4910359606                       # Total bandwidth to/from this memory (bytes/s)
system.cpu_voltage_domain.voltage                   1                       # Voltage in Volts
system.cpu_clk_domain.clock                       500                       # Clock period in ticks
system.cpu.apic_clk_domain.clock                 8000                       # Clock period in ticks
system.cpu.workload.num_syscalls                  140                       # Number of system calls
system.cpu.numCycles                         13341530                       # number of cpu cycles simulated
system.cpu.numWorkItemsStarted                      0                       # number of work items this cpu started
system.cpu.numWorkItemsCompleted                    0                       # number of work items this cpu completed
system.cpu.committedInsts                     1289018                       # Number of instructions committed
system.cpu.committedOps                       2606977                       # Number of ops (including micro ops) committed
system.cpu.num_int_alu_accesses               2598339                       # Number of integer alu accesses
system.cpu.num_fp_alu_accesses                  11120                       # Number of float alu accesses
system.cpu.num_func_calls                       62252                       # number of times a function call or return occured
system.cpu.num_conditional_control_insts       184991                       # number of instructions that are conditional controls
system.cpu.num_int_insts                      2598339                       # number of integer instructions
system.cpu.num_fp_insts                         11120                       # number of float instructions
system.cpu.num_int_register_reads             5503450                       # number of times the integer registers were read
system.cpu.num_int_register_writes            2099070                       # number of times the integer registers were written
system.cpu.num_fp_register_reads                17586                       # number of times the floating registers were read
system.cpu.num_fp_register_writes                9009                       # number of times the floating registers were written
system.cpu.num_cc_register_reads              1318348                       # number of times the CC registers were read
system.cpu.num_cc_register_writes              998590                       # number of times the CC registers were written
system.cpu.num_mem_refs                        843700                       # number of memory refs
system.cpu.num_load_insts                      596278                       # Number of load instructions
system.cpu.num_store_insts                     247422                       # Number of store instructions
system.cpu.num_idle_cycles               1631777.027755                       # Number of idle cycles
system.cpu.num_busy_cycles               11709752.972245                       # Number of busy cycles
system.cpu.not_idle_fraction                 0.877692                       # Percentage of non-idle cycles
system.cpu.idle_fraction                     0.122308                       # Percentage of idle cycles
system.cpu.Branches                            253656                       # Number of branches fetched
system.cpu.op_class::No_OpClass                  1960      0.08%      0.08% # Class of executed instruction
system.cpu.op_class::IntAlu                   1752499     67.22%     67.30% # Class of executed instruction
system.cpu.op_class::IntMult                      347      0.01%     67.31% # Class of executed instruction
system.cpu.op_class::IntDiv                      1546      0.06%     67.37% # Class of executed instruction
system.cpu.op_class::FloatAdd                    6925      0.27%     67.64% # Class of executed instruction
system.cpu.op_class::FloatCmp                       0      0.00%     67.64% # Class of executed instruction
system.cpu.op_class::FloatCvt                       0      0.00%     67.64% # Class of executed instruction
system.cpu.op_class::FloatMult                      0      0.00%     67.64% # Class of executed instruction
system.cpu.op_class::FloatDiv                       0      0.00%     67.64% # Class of executed instruction
system.cpu.op_class::FloatSqrt                      0      0.00%     67.64% # Class of executed instruction
system.cpu.op_class::SimdAdd                        0      0.00%     67.64% # Class of executed instruction
system.cpu.op_class::SimdAddAcc                     0      0.00%     67.64% # Class of executed instruction
system.cpu.op_class::SimdAlu                        0      0.00%     67.64% # Class of executed instruction
system.cpu.op_class::SimdCmp                        0      0.00%     67.64% # Class of executed instruction
system.cpu.op_class::SimdCvt                        0      0.00%     67.64% # Class of executed instruction
system.cpu.op_class::SimdMisc                       0      0.00%     67.64% # Class of executed instruction
system.cpu.op_class::SimdMult                       0      0.00%     67.64% # Class of executed instruction
system.cpu.op_class::SimdMultAcc                    0      0.00%     67.64% # Class of executed instruction
system.cpu.op_class::SimdShift                      0      0.00%     67.64% # Class of executed instruction
system.cpu.op_class::SimdShiftAcc                   0      0.00%     67.64% # Class of executed instruction
system.cpu.op_class::SimdSqrt                       0      0.00%     67.64% # Class of executed instruction
system.cpu.op_class::SimdFloatAdd                   0      0.00%     67.64% # Class of executed instruction
system.cpu.op_class::SimdFloatAlu                   0      0.00%     67.64% # Class of executed instruction
system.cpu.op_class::SimdFloatCmp                   0      0.00%     67.64% # Class of executed instruction
system.cpu.op_class::SimdFloatCvt                   0      0.00%     67.64% # Class of executed instruction
system.cpu.op_class::SimdFloatDiv                   0      0.00%     67.64% # Class of executed instruction
system.cpu.op_class::SimdFloatMisc                  0      0.00%     67.64% # Class of executed instruction
system.cpu.op_class::SimdFloatMult                  0      0.00%     67.64% # Class of executed instruction
system.cpu.op_class::SimdFloatMultAcc               0      0.00%     67.64% # Class of executed instruction
system.cpu.op_class::SimdFloatSqrt                  0      0.00%     67.64% # Class of executed instruction
system.cpu.op_class::MemRead                   596278     22.87%     90.51% # Class of executed instruction
system.cpu.op_class::MemWrite                  247422      9.49%    100.00% # Class of executed instruction
system.cpu.op_class::IprAccess                      0      0.00%    100.00% # Class of executed instruction
system.cpu.op_class::InstPrefetch                   0      0.00%    100.00% # Class of executed instruction
system.cpu.op_class::total                    2606977                       # Class of executed instruction
system.gpu.clk_domain.voltage_domain.voltage            1                       # Voltage in Volts
system.gpu.clk_domain.clock                      1429                       # Clock period in ticks
system.gpu.dram_wrapper.clk_domain.clock          541                       # Clock period in ticks
system.gpu.icnt_wrapper.clk_domain.clock         2858                       # Clock period in ticks
system.ruby.delayHist::bucket_size                256                       # delay histogram for all message
system.ruby.delayHist::max_bucket                2559                       # delay histogram for all message
system.ruby.delayHist::samples                 212661                       # delay histogram for all message
system.ruby.delayHist::mean                  7.750429                       # delay histogram for all message
system.ruby.delayHist::stdev                82.845211                       # delay histogram for all message
system.ruby.delayHist                    |      210761     99.11%     99.11% |         454      0.21%     99.32% |         425      0.20%     99.52% |         421      0.20%     99.72% |         420      0.20%     99.92% |         180      0.08%    100.00% |           0      0.00%    100.00% |           0      0.00%    100.00% |           0      0.00%    100.00% |           0      0.00%    100.00% # delay histogram for all message
system.ruby.delayHist::total                   212661                       # delay histogram for all message
system.ruby.outstanding_req_hist::bucket_size           16                      
system.ruby.outstanding_req_hist::max_bucket          159                      
system.ruby.outstanding_req_hist::samples      3148947                      
system.ruby.outstanding_req_hist::mean       2.250766                      
system.ruby.outstanding_req_hist::gmean      1.297890                      
system.ruby.outstanding_req_hist::stdev      4.963632                      
system.ruby.outstanding_req_hist         |     3055063     97.02%     97.02% |       90970      2.89%     99.91% |         414      0.01%     99.92% |         220      0.01%     99.93% |         208      0.01%     99.93% |         211      0.01%     99.94% |         218      0.01%     99.95% |        1403      0.04%     99.99% |         240      0.01%    100.00% |           0      0.00%    100.00%
system.ruby.outstanding_req_hist::total       3148947                      
system.ruby.latency_hist::bucket_size            2048                      
system.ruby.latency_hist::max_bucket            20479                      
system.ruby.latency_hist::samples             3148947                      
system.ruby.latency_hist::mean              33.659070                      
system.ruby.latency_hist::gmean              1.639435                      
system.ruby.latency_hist::stdev            133.221627                      
system.ruby.latency_hist                 |     3147280     99.95%     99.95% |        1477      0.05%     99.99% |         165      0.01%    100.00% |          13      0.00%    100.00% |          10      0.00%    100.00% |           2      0.00%    100.00% |           0      0.00%    100.00% |           0      0.00%    100.00% |           0      0.00%    100.00% |           0      0.00%    100.00%
system.ruby.latency_hist::total               3148947                      
system.ruby.hit_latency_hist::bucket_size         2048                      
system.ruby.hit_latency_hist::max_bucket        20479                      
system.ruby.hit_latency_hist::samples         3091807                      
system.ruby.hit_latency_hist::mean          30.771559                      
system.ruby.hit_latency_hist::gmean          1.508712                      
system.ruby.hit_latency_hist::stdev        127.334994                      
system.ruby.hit_latency_hist             |     3090338     99.95%     99.95% |        1362      0.04%    100.00% |          83      0.00%    100.00% |          13      0.00%    100.00% |           9      0.00%    100.00% |           2      0.00%    100.00% |           0      0.00%    100.00% |           0      0.00%    100.00% |           0      0.00%    100.00% |           0      0.00%    100.00%
system.ruby.hit_latency_hist::total           3091807                      
system.ruby.miss_latency_hist::bucket_size         1024                      
system.ruby.miss_latency_hist::max_bucket        10239                      
system.ruby.miss_latency_hist::samples          57140                      
system.ruby.miss_latency_hist::mean        189.900368                      
system.ruby.miss_latency_hist::gmean       147.020017                      
system.ruby.miss_latency_hist::stdev       275.462805                      
system.ruby.miss_latency_hist            |       56653     99.15%     99.15% |         289      0.51%     99.65% |          55      0.10%     99.75% |          60      0.11%     99.85% |          60      0.11%     99.96% |          22      0.04%    100.00% |           0      0.00%    100.00% |           0      0.00%    100.00% |           1      0.00%    100.00% |           0      0.00%    100.00%
system.ruby.miss_latency_hist::total            57140                      
system.ruby.L1Cache.incomplete_times               13                      
system.ruby.GPUL2Cache.incomplete_times          6288                      
system.ruby.Directory.incomplete_times            289                      
system.gpu.shader_mmu.numPagefaults                 0                       # Number of Pagefaults
system.gpu.shader_mmu.numPagewalks                193                       # Number of Pagewalks
system.gpu.shader_mmu.totalRequests               193                       # Total number of requests
system.gpu.shader_mmu.l2hits                        0                       # Hits in the shared L2
system.gpu.shader_mmu.prefetchHits                  0                       # Number of prefetch hits
system.gpu.shader_mmu.numPrefetches                 0                       # Number of prefetchs
system.gpu.shader_mmu.prefetchFaults                0                       # Number of faults caused by prefetches
system.gpu.shader_mmu.pagefaultLatency::samples            0                       # Latency to complete the pagefault
system.gpu.shader_mmu.pagefaultLatency::mean          nan                       # Latency to complete the pagefault
system.gpu.shader_mmu.pagefaultLatency::gmean          nan                       # Latency to complete the pagefault
system.gpu.shader_mmu.pagefaultLatency::stdev          nan                       # Latency to complete the pagefault
system.gpu.shader_mmu.pagefaultLatency::0            0                       # Latency to complete the pagefault
system.gpu.shader_mmu.pagefaultLatency::1            0                       # Latency to complete the pagefault
system.gpu.shader_mmu.pagefaultLatency::2            0                       # Latency to complete the pagefault
system.gpu.shader_mmu.pagefaultLatency::3            0                       # Latency to complete the pagefault
system.gpu.shader_mmu.pagefaultLatency::4            0                       # Latency to complete the pagefault
system.gpu.shader_mmu.pagefaultLatency::5            0                       # Latency to complete the pagefault
system.gpu.shader_mmu.pagefaultLatency::6            0                       # Latency to complete the pagefault
system.gpu.shader_mmu.pagefaultLatency::7            0                       # Latency to complete the pagefault
system.gpu.shader_mmu.pagefaultLatency::8            0                       # Latency to complete the pagefault
system.gpu.shader_mmu.pagefaultLatency::9            0                       # Latency to complete the pagefault
system.gpu.shader_mmu.pagefaultLatency::10            0                       # Latency to complete the pagefault
system.gpu.shader_mmu.pagefaultLatency::11            0                       # Latency to complete the pagefault
system.gpu.shader_mmu.pagefaultLatency::12            0                       # Latency to complete the pagefault
system.gpu.shader_mmu.pagefaultLatency::13            0                       # Latency to complete the pagefault
system.gpu.shader_mmu.pagefaultLatency::14            0                       # Latency to complete the pagefault
system.gpu.shader_mmu.pagefaultLatency::15            0                       # Latency to complete the pagefault
system.gpu.shader_mmu.pagefaultLatency::16            0                       # Latency to complete the pagefault
system.gpu.shader_mmu.pagefaultLatency::17            0                       # Latency to complete the pagefault
[...]
system.ruby.L1Cache_Controller.M.L2_Replacement |       48652    100.00%    100.00% |           0      0.00%    100.00%
system.ruby.L1Cache_Controller.M.L2_Replacement::total        48652                      
system.ruby.L1Cache_Controller.M.L1_to_L2 |       51665    100.00%    100.00% |           0      0.00%    100.00%
system.ruby.L1Cache_Controller.M.L1_to_L2::total        51665                      
system.ruby.L1Cache_Controller.M.Trigger_L2_to_L1D |          29    100.00%    100.00% |           0      0.00%    100.00%
system.ruby.L1Cache_Controller.M.Trigger_L2_to_L1D::total           29                      
system.ruby.L1Cache_Controller.M.Trigger_L2_to_L1I |        2092    100.00%    100.00% |           0      0.00%    100.00%
system.ruby.L1Cache_Controller.M.Trigger_L2_to_L1I::total         2092                      
system.ruby.L1Cache_Controller.M.Other_GETX |          76    100.00%    100.00% |           0      0.00%    100.00%
system.ruby.L1Cache_Controller.M.Other_GETX::total           76                      
system.ruby.L1Cache_Controller.M.Other_GETS |          12    100.00%    100.00% |           0      0.00%    100.00%
system.ruby.L1Cache_Controller.M.Other_GETS::total           12                      
system.ruby.L1Cache_Controller.MM.Load   |      410880    100.00%    100.00% |           0      0.00%    100.00%
system.ruby.L1Cache_Controller.MM.Load::total       410880                      
system.ruby.L1Cache_Controller.MM.Store  |      373188    100.00%    100.00% |           0      0.00%    100.00%
system.ruby.L1Cache_Controller.MM.Store::total       373188                      
system.ruby.L1Cache_Controller.MM.L2_Replacement |           8    100.00%    100.00% |           0      0.00%    100.00%
system.ruby.L1Cache_Controller.MM.L2_Replacement::total            8                      
system.ruby.L1Cache_Controller.MM.L1_to_L2 |         111    100.00%    100.00% |           0      0.00%    100.00%
system.ruby.L1Cache_Controller.MM.L1_to_L2::total          111                      
system.ruby.L1Cache_Controller.MM.Trigger_L2_to_L1D |          39    100.00%    100.00% |           0      0.00%    100.00%
system.ruby.L1Cache_Controller.MM.Trigger_L2_to_L1D::total           39                      
system.ruby.L1Cache_Controller.MM.Other_GETX |           3    100.00%    100.00% |           0      0.00%    100.00%
system.ruby.L1Cache_Controller.MM.Other_GETX::total            3                      
system.ruby.L1Cache_Controller.MM.Other_GETS |         261    100.00%    100.00% |           0      0.00%    100.00%
system.ruby.L1Cache_Controller.MM.Other_GETS::total          261                      
system.ruby.L1Cache_Controller.IR.Load   |           1    100.00%    100.00% |           0      0.00%    100.00%
system.ruby.L1Cache_Controller.IR.Load::total            1                      
system.ruby.L1Cache_Controller.SR.Ifetch |           9    100.00%    100.00% |           0      0.00%    100.00%
system.ruby.L1Cache_Controller.SR.Ifetch::total            9                      
system.ruby.L1Cache_Controller.OR.Ifetch |          11    100.00%    100.00% |           0      0.00%    100.00%
system.ruby.L1Cache_Controller.OR.Ifetch::total           11                      
system.ruby.L1Cache_Controller.MR.Load   |          29    100.00%    100.00% |           0      0.00%    100.00%
system.ruby.L1Cache_Controller.MR.Load::total           29                      
system.ruby.L1Cache_Controller.MR.Ifetch |        2092    100.00%    100.00% |           0      0.00%    100.00%
system.ruby.L1Cache_Controller.MR.Ifetch::total         2092                      
system.ruby.L1Cache_Controller.MMR.Load  |          26    100.00%    100.00% |           0      0.00%    100.00%
system.ruby.L1Cache_Controller.MMR.Load::total           26                      
system.ruby.L1Cache_Controller.MMR.Store |          13    100.00%    100.00% |           0      0.00%    100.00%
system.ruby.L1Cache_Controller.MMR.Store::total           13                      
system.ruby.L1Cache_Controller.IM.Ack    |        1088    100.00%    100.00% |           0      0.00%    100.00%
system.ruby.L1Cache_Controller.IM.Ack::total         1088                      
system.ruby.L1Cache_Controller.IM.Exclusive_Data |         544    100.00%    100.00% |           0      0.00%    100.00%
system.ruby.L1Cache_Controller.IM.Exclusive_Data::total          544                      
system.ruby.L1Cache_Controller.SM.Ack    |           1    100.00%    100.00% |           0      0.00%    100.00%
system.ruby.L1Cache_Controller.SM.Ack::total            1                      
system.ruby.L1Cache_Controller.SM.Data   |           1    100.00%    100.00% |           0      0.00%    100.00%
system.ruby.L1Cache_Controller.SM.Data::total            1                      
system.ruby.L1Cache_Controller.ISM.All_acks_no_sharers |           1    100.00%    100.00% |           0      0.00%    100.00%
system.ruby.L1Cache_Controller.ISM.All_acks_no_sharers::total            1                      
system.ruby.L1Cache_Controller.M_W.Load  |           1    100.00%    100.00% |           0      0.00%    100.00%
system.ruby.L1Cache_Controller.M_W.Load::total            1                      
system.ruby.L1Cache_Controller.M_W.Ack   |          24    100.00%    100.00% |           0      0.00%    100.00%
system.ruby.L1Cache_Controller.M_W.Ack::total           24                      
system.ruby.L1Cache_Controller.M_W.All_acks_no_sharers |       50012    100.00%    100.00% |           0      0.00%    100.00%
system.ruby.L1Cache_Controller.M_W.All_acks_no_sharers::total        50012                      
system.ruby.L1Cache_Controller.MM_W.All_acks_no_sharers |         544    100.00%    100.00% |           0      0.00%    100.00%
system.ruby.L1Cache_Controller.MM_W.All_acks_no_sharers::total          544                      
system.ruby.L1Cache_Controller.IS.Ack    |      100002    100.00%    100.00% |           0      0.00%    100.00%
system.ruby.L1Cache_Controller.IS.Ack::total       100002                      
system.ruby.L1Cache_Controller.IS.Shared_Data |           2    100.00%    100.00% |           0      0.00%    100.00%
system.ruby.L1Cache_Controller.IS.Shared_Data::total            2                      
system.ruby.L1Cache_Controller.IS.Exclusive_Data |       50012    100.00%    100.00% |           0      0.00%    100.00%
system.ruby.L1Cache_Controller.IS.Exclusive_Data::total        50012                      
system.ruby.L1Cache_Controller.SS.All_acks |           2    100.00%    100.00% |           0      0.00%    100.00%
system.ruby.L1Cache_Controller.SS.All_acks::total            2                      
system.ruby.L1Cache_Controller.MI.Writeback_Ack |       48660    100.00%    100.00% |           0      0.00%    100.00%
system.ruby.L1Cache_Controller.MI.Writeback_Ack::total        48660                      
system.ruby.L1Cache_Controller.IT.Complete_L2_to_L1 |           1    100.00%    100.00% |           0      0.00%    100.00%
system.ruby.L1Cache_Controller.IT.Complete_L2_to_L1::total            1                      
system.ruby.L1Cache_Controller.ST.Complete_L2_to_L1 |           9    100.00%    100.00% |           0      0.00%    100.00%
system.ruby.L1Cache_Controller.ST.Complete_L2_to_L1::total            9                      
system.ruby.L1Cache_Controller.OT.Complete_L2_to_L1 |          11    100.00%    100.00% |           0      0.00%    100.00%
system.ruby.L1Cache_Controller.OT.Complete_L2_to_L1::total           11                      
system.ruby.L1Cache_Controller.MT.Complete_L2_to_L1 |        2121    100.00%    100.00% |           0      0.00%    100.00%
system.ruby.L1Cache_Controller.MT.Complete_L2_to_L1::total         2121                      
system.ruby.L1Cache_Controller.MMT.Complete_L2_to_L1 |          39    100.00%    100.00% |           0      0.00%    100.00%
system.ruby.L1Cache_Controller.MMT.Complete_L2_to_L1::total           39                      
system.ruby.GPUL1Cache_Controller.Load   |        3848      1.25%      1.25% |       16981      5.53%      6.78% |       18282      5.95%     12.73% |       20841      6.78%     19.51% |       24355      7.92%     27.43% |       28686      9.33%     36.77% |       32408     10.54%     47.31% |       32954     10.72%     58.03% |       33872     11.02%     69.05% |       29773      9.69%     78.74% |       23736      7.72%     86.47% |       12281      4.00%     90.46% |       10889      3.54%     94.00% |        9614      3.13%     97.13% |        4808      1.56%     98.70% |        4004      1.30%    100.00%
system.ruby.GPUL1Cache_Controller.Load::total       307332                      
system.ruby.GPUL1Cache_Controller.Ifetch |         163      0.28%      0.28% |        3214      5.52%      5.80% |        3089      5.30%     11.10% |        4181      7.18%     18.28% |        4997      8.58%     26.85% |        5916     10.15%     37.01% |        7128     12.24%     49.24% |        7107     12.20%     61.44% |        7364     12.64%     74.08% |        6208     10.66%     84.74% |        3830      6.57%     91.31% |        1960      3.36%     94.68% |        1094      1.88%     96.55% |        1125      1.93%     98.48% |         470      0.81%     99.29% |         413      0.71%    100.00%
system.ruby.GPUL1Cache_Controller.Ifetch::total        58259                      
system.ruby.GPUL1Cache_Controller.Store  |       12880      6.25%      6.25% |       12880      6.25%     12.50% |       12880      6.25%     18.75% |       12880      6.25%     25.00% |       12880      6.25%     31.25% |       12880      6.25%     37.50% |       12880      6.25%     43.75% |       12880      6.25%     50.00% |       12880      6.25%     56.25% |       12880      6.25%     62.50% |       12880      6.25%     68.75% |       12880      6.25%     75.00% |       12880      6.25%     81.25% |       12880      6.25%     87.50% |       12880      6.25%     93.75% |       12880      6.25%    100.00%
system.ruby.GPUL1Cache_Controller.Store::total       206080                      
system.ruby.GPUL1Cache_Controller.Data   |         401      6.09%      6.09% |         412      6.26%     12.35% |         412      6.26%     18.61% |         412      6.26%     24.87% |         412      6.26%     31.14% |         412      6.26%     37.40% |         412      6.26%     43.66% |         412      6.26%     49.92% |         412      6.26%     56.18% |         412      6.26%     62.44% |         412      6.26%     68.70% |         412      6.26%     74.96% |         412      6.26%     81.22% |         412      6.26%     87.48% |         412      6.26%     93.74% |         412      6.26%    100.00%
system.ruby.GPUL1Cache_Controller.Data::total         6581                      
system.ruby.GPUL1Cache_Controller.Write_Ack |       12880      6.25%      6.25% |       12880      6.25%     12.50% |       12880      6.25%     18.75% |       12880      6.25%     25.00% |       12880      6.25%     31.25% |       12880      6.25%     37.50% |       12880      6.25%     43.75% |       12880      6.25%     50.00% |       12880      6.25%     56.25% |       12880      6.25%     62.50% |       12880      6.25%     68.75% |       12880      6.25%     75.00% |       12880      6.25%     81.25% |       12880      6.25%     87.50% |       12880      6.25%     93.75% |       12880      6.25%    100.00%
system.ruby.GPUL1Cache_Controller.Write_Ack::total       206080                      
system.ruby.GPUL1Cache_Controller.I.Load |         379      6.23%      6.23% |         380      6.25%     12.49% |         380      6.25%     18.74% |         380      6.25%     24.99% |         380      6.25%     31.24% |         380      6.25%     37.49% |         380      6.25%     43.74% |         380      6.25%     49.99% |         380      6.25%     56.24% |         380      6.25%     62.49% |         380      6.25%     68.74% |         380      6.25%     75.00% |         380      6.25%     81.25% |         380      6.25%     87.50% |         380      6.25%     93.75% |         380      6.25%    100.00%
system.ruby.GPUL1Cache_Controller.I.Load::total         6079                      
system.ruby.GPUL1Cache_Controller.I.Ifetch |          22      4.38%      4.38% |          32      6.37%     10.76% |          32      6.37%     17.13% |          32      6.37%     23.51% |          32      6.37%     29.88% |          32      6.37%     36.25% |          32      6.37%     42.63% |          32      6.37%     49.00% |          32      6.37%     55.38% |          32      6.37%     61.75% |          32      6.37%     68.13% |          32      6.37%     74.50% |          32      6.37%     80.88% |          32      6.37%     87.25% |          32      6.37%     93.63% |          32      6.37%    100.00%
system.ruby.GPUL1Cache_Controller.I.Ifetch::total          502                      
system.ruby.GPUL1Cache_Controller.I.Store |       12504      6.25%      6.25% |       12504      6.25%     12.50% |       12504      6.25%     18.75% |       12504      6.25%     25.00% |       12504      6.25%     31.25% |       12504      6.25%     37.50% |       12504      6.25%     43.75% |       12504      6.25%     50.00% |       12504      6.25%     56.25% |       12504      6.25%     62.50% |       12504      6.25%     68.75% |       12504      6.25%     75.00% |       12504      6.25%     81.25% |       12504      6.25%     87.50% |       12504      6.25%     93.75% |       12504      6.25%    100.00%
system.ruby.GPUL1Cache_Controller.I.Store::total       200064                      
system.ruby.GPUL1Cache_Controller.V.Load |        3469      1.15%      1.15% |       16601      5.51%      6.66% |       17902      5.94%     12.60% |       20461      6.79%     19.40% |       23975      7.96%     27.36% |       28306      9.40%     36.75% |       32028     10.63%     47.38% |       32574     10.81%     58.20% |       33492     11.12%     69.31% |       29393      9.76%     79.07% |       23356      7.75%     86.82% |       11901      3.95%     90.77% |       10509      3.49%     94.26% |        9234      3.07%     97.33% |        4428      1.47%     98.80% |        3624      1.20%    100.00%
system.ruby.GPUL1Cache_Controller.V.Load::total       301253                      
system.ruby.GPUL1Cache_Controller.V.Ifetch |         141      0.24%      0.24% |        3182      5.51%      5.75% |        3057      5.29%     11.05% |        4149      7.18%     18.23% |        4965      8.60%     26.83% |        5884     10.19%     37.01% |        7096     12.29%     49.30% |        7075     12.25%     61.55% |        7332     12.69%     74.24% |        6176     10.69%     84.94% |        3798      6.58%     91.51% |        1928      3.34%     94.85% |        1062      1.84%     96.69% |        1093      1.89%     98.58% |         438      0.76%     99.34% |         381      0.66%    100.00%
system.ruby.GPUL1Cache_Controller.V.Ifetch::total        57757                      
system.ruby.GPUL1Cache_Controller.V.Store |         376      6.25%      6.25% |         376      6.25%     12.50% |         376      6.25%     18.75% |         376      6.25%     25.00% |         376      6.25%     31.25% |         376      6.25%     37.50% |         376      6.25%     43.75% |         376      6.25%     50.00% |         376      6.25%     56.25% |         376      6.25%     62.50% |         376      6.25%     68.75% |         376      6.25%     75.00% |         376      6.25%     81.25% |         376      6.25%     87.50% |         376      6.25%     93.75% |         376      6.25%    100.00%
system.ruby.GPUL1Cache_Controller.V.Store::total         6016                      
system.ruby.GPUL1Cache_Controller.IA.Write_Ack |       12880      6.25%      6.25% |       12880      6.25%     12.50% |       12880      6.25%     18.75% |       12880      6.25%     25.00% |       12880      6.25%     31.25% |       12880      6.25%     37.50% |       12880      6.25%     43.75% |       12880      6.25%     50.00% |       12880      6.25%     56.25% |       12880      6.25%     62.50% |       12880      6.25%     68.75% |       12880      6.25%     75.00% |       12880      6.25%     81.25% |       12880      6.25%     87.50% |       12880      6.25%     93.75% |       12880      6.25%    100.00%
system.ruby.GPUL1Cache_Controller.IA.Write_Ack::total       206080                      
system.ruby.GPUL1Cache_Controller.IV.Data |         401      6.09%      6.09% |         412      6.26%     12.35% |         412      6.26%     18.61% |         412      6.26%     24.87% |         412      6.26%     31.14% |         412      6.26%     37.40% |         412      6.26%     43.66% |         412      6.26%     49.92% |         412      6.26%     56.18% |         412      6.26%     62.44% |         412      6.26%     68.70% |         412      6.26%     74.96% |         412      6.26%     81.22% |         412      6.26%     87.48% |         412      6.26%     93.74% |         412      6.26%    100.00%
system.ruby.GPUL1Cache_Controller.IV.Data::total         6581                      
system.ruby.GPUL2Cache_Controller.Get            6804      0.00%      0.00%
system.ruby.GPUL2Cache_Controller.Store        206080      0.00%      0.00%
system.ruby.GPUL2Cache_Controller.Other_GETX         2095      0.00%      0.00%
system.ruby.GPUL2Cache_Controller.Other_GETS        51555      0.00%      0.00%
system.ruby.GPUL2Cache_Controller.Ack            3884      0.00%      0.00%
system.ruby.GPUL2Cache_Controller.Shared_Data           11      0.00%      0.00%
system.ruby.GPUL2Cache_Controller.Exclusive_Data         1946      0.00%      0.00%
system.ruby.GPUL2Cache_Controller.All_acks           11      0.00%      0.00%
system.ruby.GPUL2Cache_Controller.All_acks_no_sharers         1946      0.00%      0.00%
system.ruby.GPUL2Cache_Controller.I.Get           293      0.00%      0.00%
system.ruby.GPUL2Cache_Controller.I.Store         1664      0.00%      0.00%
system.ruby.GPUL2Cache_Controller.I.Other_GETX         2094      0.00%      0.00%
system.ruby.GPUL2Cache_Controller.I.Other_GETS        50273      0.00%      0.00%
system.ruby.GPUL2Cache_Controller.S.Get           140      0.00%      0.00%
system.ruby.GPUL2Cache_Controller.O.Other_GETX            1      0.00%      0.00%
system.ruby.GPUL2Cache_Controller.M.Get           318      0.00%      0.00%
system.ruby.GPUL2Cache_Controller.M.Store          256      0.00%      0.00%
system.ruby.GPUL2Cache_Controller.M.Other_GETS            2      0.00%      0.00%
system.ruby.GPUL2Cache_Controller.MM.Get         5760      0.00%      0.00%
system.ruby.GPUL2Cache_Controller.MM.Store       204160      0.00%      0.00%
system.ruby.GPUL2Cache_Controller.MM.Other_GETS         1280      0.00%      0.00%
system.ruby.GPUL2Cache_Controller.IM.Ack         3194      0.00%      0.00%
system.ruby.GPUL2Cache_Controller.IM.Exclusive_Data         1664      0.00%      0.00%
system.ruby.GPUL2Cache_Controller.IS.Get          223      0.00%      0.00%
system.ruby.GPUL2Cache_Controller.IS.Ack          571      0.00%      0.00%
system.ruby.GPUL2Cache_Controller.IS.Shared_Data           11      0.00%      0.00%
system.ruby.GPUL2Cache_Controller.IS.Exclusive_Data          282      0.00%      0.00%
system.ruby.GPUL2Cache_Controller.SS.Get           22      0.00%      0.00%
system.ruby.GPUL2Cache_Controller.SS.Ack            1      0.00%      0.00%
system.ruby.GPUL2Cache_Controller.SS.All_acks           11      0.00%      0.00%
system.ruby.GPUL2Cache_Controller.M_W.Get           48      0.00%      0.00%
system.ruby.GPUL2Cache_Controller.M_W.Ack            1      0.00%      0.00%
system.ruby.GPUL2Cache_Controller.M_W.All_acks_no_sharers          282      0.00%      0.00%
system.ruby.GPUL2Cache_Controller.MM_W.Ack          117      0.00%      0.00%
system.ruby.GPUL2Cache_Controller.MM_W.All_acks_no_sharers         1664      0.00%      0.00%

---------- End Simulation Statistics   ----------
