
---------- Begin Simulation Statistics ----------
sim_seconds                                  0.123375                       # Number of seconds simulated
sim_ticks                                123375368500                       # Number of ticks simulated
final_tick                               123375368500                       # Number of ticks from beginning of simulation (restored from checkpoints and never reset)
sim_freq                                 1000000000000                       # Frequency of simulated ticks
host_inst_rate                                  40694                       # Simulator instruction rate (inst/s)
host_op_rate                                    67511                       # Simulator op (including micro ops) rate (op/s)
host_tick_rate                               79614043                       # Simulator tick rate (ticks/s)
host_mem_usage                                4773424                       # Number of bytes of host memory used
host_seconds                                  1549.67                       # Real time elapsed on the host
sim_insts                                    63062497                       # Number of instructions simulated
sim_ops                                     104619613                       # Number of ops (including micro ops) simulated
system.voltage_domain.voltage                       1                       # Voltage in Volts
system.clk_domain.clock                          1000                       # Clock period in ticks
system.mem_ctrls.bytes_read::ruby.dir_cntrl0     11225344                       # Number of bytes read from this memory
system.mem_ctrls.bytes_read::total           11225344                       # Number of bytes read from this memory
system.mem_ctrls.bytes_written::ruby.dir_cntrl0     13331584                       # Number of bytes written to this memory
system.mem_ctrls.bytes_written::total        13331584                       # Number of bytes written to this memory
system.mem_ctrls.num_reads::ruby.dir_cntrl0        87698                       # Number of read requests responded to by this memory
system.mem_ctrls.num_reads::total               87698                       # Number of read requests responded to by this memory
system.mem_ctrls.num_writes::ruby.dir_cntrl0       104153                       # Number of write requests responded to by this memory
system.mem_ctrls.num_writes::total             104153                       # Number of write requests responded to by this memory
system.mem_ctrls.bw_read::ruby.dir_cntrl0     90985293                       # Total read bandwidth from this memory (bytes/s)
system.mem_ctrls.bw_read::total              90985293                       # Total read bandwidth from this memory (bytes/s)
system.mem_ctrls.bw_write::ruby.dir_cntrl0    108057096                       # Write bandwidth from this memory (bytes/s)
system.mem_ctrls.bw_write::total            108057096                       # Write bandwidth from this memory (bytes/s)
system.mem_ctrls.bw_total::ruby.dir_cntrl0    199042388                       # Total bandwidth to/from this memory (bytes/s)
system.mem_ctrls.bw_total::total            199042388                       # Total bandwidth to/from this memory (bytes/s)
system.mem_ctrls.readReqs                       87698                       # Number of read requests accepted
system.mem_ctrls.writeReqs                     104153                       # Number of write requests accepted
system.mem_ctrls.readBursts                    175396                       # Number of DRAM read bursts, including those serviced by the write queue
system.mem_ctrls.writeBursts                   208306                       # Number of DRAM write bursts, including those merged in the write queue
system.mem_ctrls.bytesReadDRAM               11185344                       # Total number of bytes read from DRAM
system.mem_ctrls.bytesReadWrQ                   40000                       # Total number of bytes read from write queue
system.mem_ctrls.bytesWritten                13329728                       # Total number of bytes written to DRAM
system.mem_ctrls.bytesReadSys                11225344                       # Total read bytes from the system interface side
system.mem_ctrls.bytesWrittenSys             13331584                       # Total written bytes from the system interface side
system.mem_ctrls.servicedByWrQ                    625                       # Number of DRAM read bursts serviced by the write queue
system.mem_ctrls.mergedWrBursts                     0                       # Number of DRAM write bursts merged with an existing one
system.mem_ctrls.neitherReadNorWriteReqs            0                       # Number of requests that are neither read nor write
system.mem_ctrls.perBankRdBursts::0             10936                       # Per bank write bursts
system.mem_ctrls.perBankRdBursts::1             10652                       # Per bank write bursts
system.mem_ctrls.perBankRdBursts::2             10732                       # Per bank write bursts
system.mem_ctrls.perBankRdBursts::3             10898                       # Per bank write bursts
system.mem_ctrls.perBankRdBursts::4             11138                       # Per bank write bursts
system.mem_ctrls.perBankRdBursts::5             11412                       # Per bank write bursts
system.mem_ctrls.perBankRdBursts::6             11106                       # Per bank write bursts
system.mem_ctrls.perBankRdBursts::7             11078                       # Per bank write bursts
system.mem_ctrls.perBankRdBursts::8             11301                       # Per bank write bursts
system.mem_ctrls.perBankRdBursts::9             10805                       # Per bank write bursts
system.mem_ctrls.perBankRdBursts::10            11084                       # Per bank write bursts
system.mem_ctrls.perBankRdBursts::11            10942                       # Per bank write bursts
system.mem_ctrls.perBankRdBursts::12            10636                       # Per bank write bursts
system.mem_ctrls.perBankRdBursts::13            10596                       # Per bank write bursts
system.mem_ctrls.perBankRdBursts::14            10747                       # Per bank write bursts
system.mem_ctrls.perBankRdBursts::15            10708                       # Per bank write bursts
system.mem_ctrls.perBankWrBursts::0             13122                       # Per bank write bursts
system.mem_ctrls.perBankWrBursts::1             12784                       # Per bank write bursts
system.mem_ctrls.perBankWrBursts::2             12772                       # Per bank write bursts
system.mem_ctrls.perBankWrBursts::3             12846                       # Per bank write bursts
system.mem_ctrls.perBankWrBursts::4             13062                       # Per bank write bursts
system.mem_ctrls.perBankWrBursts::5             13294                       # Per bank write bursts
system.mem_ctrls.perBankWrBursts::6             13130                       # Per bank write bursts
system.mem_ctrls.perBankWrBursts::7             13164                       # Per bank write bursts
system.mem_ctrls.perBankWrBursts::8             13504                       # Per bank write bursts
system.mem_ctrls.perBankWrBursts::9             13065                       # Per bank write bursts
system.mem_ctrls.perBankWrBursts::10            13006                       # Per bank write bursts
system.mem_ctrls.perBankWrBursts::11            12996                       # Per bank write bursts
system.mem_ctrls.perBankWrBursts::12            12914                       # Per bank write bursts
system.mem_ctrls.perBankWrBursts::13            12930                       # Per bank write bursts
system.mem_ctrls.perBankWrBursts::14            12926                       # Per bank write bursts
system.mem_ctrls.perBankWrBursts::15            12762                       # Per bank write bursts
system.mem_ctrls.numRdRetry                     77985                       # Number of times read queue was full causing retry
system.mem_ctrls.numWrRetry                    137190                       # Number of times write queue was full causing retry
system.mem_ctrls.totGap                  123375281000                       # Total gap between requests
system.mem_ctrls.readPktSize::0                     0                       # Read request sizes (log2)
system.mem_ctrls.readPktSize::1                     0                       # Read request sizes (log2)
system.mem_ctrls.readPktSize::2                     0                       # Read request sizes (log2)
system.mem_ctrls.readPktSize::3                     0                       # Read request sizes (log2)
system.mem_ctrls.readPktSize::4                     0                       # Read request sizes (log2)
system.mem_ctrls.readPktSize::5                     0                       # Read request sizes (log2)
system.mem_ctrls.readPktSize::6                175396                       # Read request sizes (log2)
system.mem_ctrls.writePktSize::0                    0                       # Write request sizes (log2)
system.mem_ctrls.writePktSize::1                    0                       # Write request sizes (log2)
system.mem_ctrls.writePktSize::2                    0                       # Write request sizes (log2)
system.mem_ctrls.writePktSize::3                    0                       # Write request sizes (log2)
system.mem_ctrls.writePktSize::4                    0                       # Write request sizes (log2)
system.mem_ctrls.writePktSize::5                    0                       # Write request sizes (log2)
system.mem_ctrls.writePktSize::6               208306                       # Write request sizes (log2)
system.mem_ctrls.rdQLenPdf::0                   37604                       # What read queue length does an incoming req see
system.mem_ctrls.rdQLenPdf::1                   37652                       # What read queue length does an incoming req see
system.mem_ctrls.rdQLenPdf::2                    1110                       # What read queue length does an incoming req see
system.mem_ctrls.rdQLenPdf::3                    1116                       # What read queue length does an incoming req see
system.mem_ctrls.rdQLenPdf::4                     856                       # What read queue length does an incoming req see
system.mem_ctrls.rdQLenPdf::5                     872                       # What read queue length does an incoming req see
system.mem_ctrls.rdQLenPdf::6                     768                       # What read queue length does an incoming req see
system.mem_ctrls.rdQLenPdf::7                     779                       # What read queue length does an incoming req see
system.mem_ctrls.rdQLenPdf::8                     518                       # What read queue length does an incoming req see
system.mem_ctrls.rdQLenPdf::9                     527                       # What read queue length does an incoming req see
system.mem_ctrls.rdQLenPdf::10                    462                       # What read queue length does an incoming req see
system.mem_ctrls.rdQLenPdf::11                    474                       # What read queue length does an incoming req see
system.mem_ctrls.rdQLenPdf::12                    432                       # What read queue length does an incoming req see
system.mem_ctrls.rdQLenPdf::13                    445                       # What read queue length does an incoming req see
system.mem_ctrls.rdQLenPdf::14                    418                       # What read queue length does an incoming req see
system.mem_ctrls.rdQLenPdf::15                    419                       # What read queue length does an incoming req see
system.mem_ctrls.rdQLenPdf::16                    395                       # What read queue length does an incoming req see
system.mem_ctrls.rdQLenPdf::17                    421                       # What read queue length does an incoming req see
system.mem_ctrls.rdQLenPdf::18                    420                       # What read queue length does an incoming req see
system.mem_ctrls.rdQLenPdf::19                    440                       # What read queue length does an incoming req see
system.mem_ctrls.rdQLenPdf::20                    464                       # What read queue length does an incoming req see
system.mem_ctrls.rdQLenPdf::21                    499                       # What read queue length does an incoming req see
system.mem_ctrls.rdQLenPdf::22                    572                       # What read queue length does an incoming req see
system.mem_ctrls.rdQLenPdf::23                    608                       # What read queue length does an incoming req see
system.mem_ctrls.rdQLenPdf::24                    661                       # What read queue length does an incoming req see
system.mem_ctrls.rdQLenPdf::25                    707                       # What read queue length does an incoming req see
system.mem_ctrls.rdQLenPdf::26                    832                       # What read queue length does an incoming req see
system.mem_ctrls.rdQLenPdf::27                    920                       # What read queue length does an incoming req see
system.mem_ctrls.rdQLenPdf::28                   1138                       # What read queue length does an incoming req see
system.mem_ctrls.rdQLenPdf::29                   1238                       # What read queue length does an incoming req see
system.mem_ctrls.rdQLenPdf::30                  40743                       # What read queue length does an incoming req see
system.mem_ctrls.rdQLenPdf::31                  40261                       # What read queue length does an incoming req see
system.mem_ctrls.wrQLenPdf::0                       1                       # What write queue length does an incoming req see
system.mem_ctrls.wrQLenPdf::1                       1                       # What write queue length does an incoming req see
system.mem_ctrls.wrQLenPdf::2                       1                       # What write queue length does an incoming req see
system.mem_ctrls.wrQLenPdf::3                       1                       # What write queue length does an incoming req see
system.mem_ctrls.wrQLenPdf::4                       1                       # What write queue length does an incoming req see
system.mem_ctrls.wrQLenPdf::5                       1                       # What write queue length does an incoming req see
system.mem_ctrls.wrQLenPdf::6                       1                       # What write queue length does an incoming req see
system.mem_ctrls.wrQLenPdf::7                       1                       # What write queue length does an incoming req see
system.mem_ctrls.wrQLenPdf::8                       1                       # What write queue length does an incoming req see
system.mem_ctrls.wrQLenPdf::9                       1                       # What write queue length does an incoming req see
system.mem_ctrls.wrQLenPdf::10                      1                       # What write queue length does an incoming req see
system.mem_ctrls.wrQLenPdf::11                      1                       # What write queue length does an incoming req see
system.mem_ctrls.wrQLenPdf::12                      1                       # What write queue length does an incoming req see
system.mem_ctrls.wrQLenPdf::13                      1                       # What write queue length does an incoming req see
system.mem_ctrls.wrQLenPdf::14                      1                       # What write queue length does an incoming req see
system.mem_ctrls.wrQLenPdf::15                    428                       # What write queue length does an incoming req see
system.mem_ctrls.wrQLenPdf::16                    465                       # What write queue length does an incoming req see
system.mem_ctrls.wrQLenPdf::17                    520                       # What write queue length does an incoming req see
system.mem_ctrls.wrQLenPdf::18                    549                       # What write queue length does an incoming req see
system.mem_ctrls.wrQLenPdf::19                    571                       # What write queue length does an incoming req see
system.mem_ctrls.wrQLenPdf::20                    617                       # What write queue length does an incoming req see
system.mem_ctrls.wrQLenPdf::21                    628                       # What write queue length does an incoming req see
system.mem_ctrls.wrQLenPdf::22                    608                       # What write queue length does an incoming req see
system.mem_ctrls.wrQLenPdf::23                    619                       # What write queue length does an incoming req see
system.mem_ctrls.wrQLenPdf::24                    618                       # What write queue length does an incoming req see
system.mem_ctrls.wrQLenPdf::25                    636                       # What write queue length does an incoming req see
system.mem_ctrls.wrQLenPdf::26                    649                       # What write queue length does an incoming req see
system.mem_ctrls.wrQLenPdf::27                    670                       # What write queue length does an incoming req see
system.mem_ctrls.wrQLenPdf::28                    672                       # What write queue length does an incoming req see
system.mem_ctrls.wrQLenPdf::29                    684                       # What write queue length does an incoming req see
system.mem_ctrls.wrQLenPdf::30                    689                       # What write queue length does an incoming req see
system.mem_ctrls.wrQLenPdf::31                    697                       # What write queue length does an incoming req see
system.mem_ctrls.wrQLenPdf::32                    707                       # What write queue length does an incoming req see
system.mem_ctrls.wrQLenPdf::33                    249                       # What write queue length does an incoming req see
system.mem_ctrls.wrQLenPdf::34                    178                       # What write queue length does an incoming req see
system.mem_ctrls.wrQLenPdf::35                    165                       # What write queue length does an incoming req see
system.mem_ctrls.wrQLenPdf::36                    157                       # What write queue length does an incoming req see
system.mem_ctrls.wrQLenPdf::37                    152                       # What write queue length does an incoming req see
system.mem_ctrls.wrQLenPdf::38                    149                       # What write queue length does an incoming req see
system.mem_ctrls.wrQLenPdf::39                    312                       # What write queue length does an incoming req see
system.mem_ctrls.wrQLenPdf::40                    385                       # What write queue length does an incoming req see
system.mem_ctrls.wrQLenPdf::41                    593                       # What write queue length does an incoming req see
system.mem_ctrls.wrQLenPdf::42                    669                       # What write queue length does an incoming req see
system.mem_ctrls.wrQLenPdf::43                    922                       # What write queue length does an incoming req see
system.mem_ctrls.wrQLenPdf::44                   1034                       # What write queue length does an incoming req see
system.mem_ctrls.wrQLenPdf::45                   1371                       # What write queue length does an incoming req see
system.mem_ctrls.wrQLenPdf::46                   1486                       # What write queue length does an incoming req see
system.mem_ctrls.wrQLenPdf::47                   1916                       # What write queue length does an incoming req see
system.mem_ctrls.wrQLenPdf::48                   2026                       # What write queue length does an incoming req see
system.mem_ctrls.wrQLenPdf::49                   2646                       # What write queue length does an incoming req see
system.mem_ctrls.wrQLenPdf::50                   2836                       # What write queue length does an incoming req see
system.mem_ctrls.wrQLenPdf::51                   3470                       # What write queue length does an incoming req see
system.mem_ctrls.wrQLenPdf::52                   3630                       # What write queue length does an incoming req see
system.mem_ctrls.wrQLenPdf::53                   4386                       # What write queue length does an incoming req see
system.mem_ctrls.wrQLenPdf::54                   5405                       # What write queue length does an incoming req see
system.mem_ctrls.wrQLenPdf::55                   5288                       # What write queue length does an incoming req see
system.mem_ctrls.wrQLenPdf::56                   4974                       # What write queue length does an incoming req see
system.mem_ctrls.wrQLenPdf::57                   3899                       # What write queue length does an incoming req see
system.mem_ctrls.wrQLenPdf::58                   3423                       # What write queue length does an incoming req see
system.mem_ctrls.wrQLenPdf::59                   2660                       # What write queue length does an incoming req see
system.mem_ctrls.wrQLenPdf::60                   2457                       # What write queue length does an incoming req see
system.mem_ctrls.wrQLenPdf::61                   2032                       # What write queue length does an incoming req see
system.mem_ctrls.wrQLenPdf::62                  69762                       # What write queue length does an incoming req see
system.mem_ctrls.wrQLenPdf::63                  68632                       # What write queue length does an incoming req see
system.mem_ctrls.bytesPerActivate::samples        34470                       # Bytes accessed per row activation
system.mem_ctrls.bytesPerActivate::mean    711.155672                       # Bytes accessed per row activation
system.mem_ctrls.bytesPerActivate::gmean   575.212649                       # Bytes accessed per row activation
system.mem_ctrls.bytesPerActivate::stdev   354.746351                       # Bytes accessed per row activation
system.mem_ctrls.bytesPerActivate::0-127          455      1.32%      1.32% # Bytes accessed per row activation
system.mem_ctrls.bytesPerActivate::128-255         3826     11.10%     12.42% # Bytes accessed per row activation
system.mem_ctrls.bytesPerActivate::256-383         4228     12.27%     24.69% # Bytes accessed per row activation
system.mem_ctrls.bytesPerActivate::384-511         2158      6.26%     30.95% # Bytes accessed per row activation
system.mem_ctrls.bytesPerActivate::512-639         1656      4.80%     35.75% # Bytes accessed per row activation
system.mem_ctrls.bytesPerActivate::640-767         2698      7.83%     43.58% # Bytes accessed per row activation
system.mem_ctrls.bytesPerActivate::768-895         1593      4.62%     48.20% # Bytes accessed per row activation
system.mem_ctrls.bytesPerActivate::896-1023          769      2.23%     50.43% # Bytes accessed per row activation
system.mem_ctrls.bytesPerActivate::1024-1151        17087     49.57%    100.00% # Bytes accessed per row activation
system.mem_ctrls.bytesPerActivate::total        34470                       # Bytes accessed per row activation
system.mem_ctrls.rdPerTurnAround::samples         8192                       # Reads before turning the bus around for writes
system.mem_ctrls.rdPerTurnAround::mean      21.289185                       # Reads before turning the bus around for writes
system.mem_ctrls.rdPerTurnAround::stdev    300.668536                       # Reads before turning the bus around for writes
system.mem_ctrls.rdPerTurnAround::0-1023         8182     99.88%     99.88% # Reads before turning the bus around for writes
system.mem_ctrls.rdPerTurnAround::1024-2047            4      0.05%     99.93% # Reads before turning the bus around for writes
system.mem_ctrls.rdPerTurnAround::3072-4095            2      0.02%     99.95% # Reads before turning the bus around for writes
system.mem_ctrls.rdPerTurnAround::7168-8191            1      0.01%     99.96% # Reads before turning the bus around for writes
system.mem_ctrls.rdPerTurnAround::8192-9215            1      0.01%     99.98% # Reads before turning the bus around for writes
system.mem_ctrls.rdPerTurnAround::15360-16383            1      0.01%     99.99% # Reads before turning the bus around for writes
system.mem_ctrls.rdPerTurnAround::17408-18431            1      0.01%    100.00% # Reads before turning the bus around for writes
system.mem_ctrls.rdPerTurnAround::total          8192                       # Reads before turning the bus around for writes
system.mem_ctrls.wrPerTurnAround::samples         8192                       # Writes before turning the bus around for reads
system.mem_ctrls.wrPerTurnAround::mean      25.424438                       # Writes before turning the bus around for reads
system.mem_ctrls.wrPerTurnAround::gmean     16.873175                       # Writes before turning the bus around for reads
system.mem_ctrls.wrPerTurnAround::stdev    267.880301                       # Writes before turning the bus around for reads
system.mem_ctrls.wrPerTurnAround::0-511          8174     99.78%     99.78% # Writes before turning the bus around for reads
system.mem_ctrls.wrPerTurnAround::512-1023           11      0.13%     99.91% # Writes before turning the bus around for reads
system.mem_ctrls.wrPerTurnAround::1024-1535            1      0.01%     99.93% # Writes before turning the bus around for reads
system.mem_ctrls.wrPerTurnAround::6656-7167            1      0.01%     99.94% # Writes before turning the bus around for reads
system.mem_ctrls.wrPerTurnAround::7680-8191            1      0.01%     99.95% # Writes before turning the bus around for reads
system.mem_ctrls.wrPerTurnAround::8192-8703            3      0.04%     99.99% # Writes before turning the bus around for reads
system.mem_ctrls.wrPerTurnAround::16384-16895            1      0.01%    100.00% # Writes before turning the bus around for reads
system.mem_ctrls.wrPerTurnAround::total          8192                       # Writes before turning the bus around for reads
system.mem_ctrls.totQLat                  39724658726                       # Total ticks spent queuing
system.mem_ctrls.totMemAccLat             43001614976                       # Total ticks spent from burst creation until serviced by the DRAM
system.mem_ctrls.totBusLat                  873855000                       # Total ticks spent in databus transfers
system.mem_ctrls.avgQLat                    227295.48                       # Average queueing delay per DRAM burst
system.mem_ctrls.avgBusLat                    5000.00                       # Average bus latency per DRAM burst
system.mem_ctrls.avgMemAccLat               246045.48                       # Average memory access latency per DRAM burst
system.mem_ctrls.avgRdBW                        90.66                       # Average DRAM read bandwidth in MiByte/s
system.mem_ctrls.avgWrBW                       108.04                       # Average achieved write bandwidth in MiByte/s
system.mem_ctrls.avgRdBWSys                     90.99                       # Average system read bandwidth in MiByte/s
system.mem_ctrls.avgWrBWSys                    108.06                       # Average system write bandwidth in MiByte/s
system.mem_ctrls.peakBW                      12800.00                       # Theoretical peak bandwidth in MiByte/s
system.mem_ctrls.busUtil                         1.55                       # Data bus utilization in percentage
system.mem_ctrls.busUtilRead                     0.71                       # Data bus utilization in percentage for reads
system.mem_ctrls.busUtilWrite                    0.84                       # Data bus utilization in percentage for writes
system.mem_ctrls.avgRdQLen                       2.36                       # Average read queue length when enqueuing
system.mem_ctrls.avgWrQLen                      32.88                       # Average write queue length when enqueuing
system.mem_ctrls.readRowHits                   155934                       # Number of row buffer hits during reads
system.mem_ctrls.writeRowHits                  192637                       # Number of row buffer hits during writes
system.mem_ctrls.readRowHitRate                 89.22                       # Row buffer hit rate for reads
system.mem_ctrls.writeRowHitRate                92.48                       # Row buffer hit rate for writes
system.mem_ctrls.avgGap                     643078.64                       # Average gap between requests
system.mem_ctrls.pageHitRate                    90.99                       # Row buffer hit rate, read and write combined
system.mem_ctrls_0.actEnergy                131733000                       # Energy for activate commands per rank (pJ)
system.mem_ctrls_0.preEnergy                 71878125                       # Energy for precharge commands per rank (pJ)
system.mem_ctrls_0.readEnergy               685760400                       # Energy for read commands per rank (pJ)
system.mem_ctrls_0.writeEnergy              675047520                       # Energy for write commands per rank (pJ)
system.mem_ctrls_0.refreshEnergy           8058133200                       # Energy for refresh commands per rank (pJ)
system.mem_ctrls_0.actBackEnergy          17826300270                       # Energy for active background per rank (pJ)
system.mem_ctrls_0.preBackEnergy          58386945750                       # Energy for precharge background per rank (pJ)
system.mem_ctrls_0.totalEnergy            85835798265                       # Total energy per rank (pJ)
system.mem_ctrls_0.averagePower            695.739805                       # Core power per rank (mW)
system.mem_ctrls_0.memoryStateTime::IDLE  97026110755                       # Time in different power states
system.mem_ctrls_0.memoryStateTime::REF    4119700000                       # Time in different power states
system.mem_ctrls_0.memoryStateTime::PRE_PDN            0                       # Time in different power states
system.mem_ctrls_0.memoryStateTime::ACT   22227621245                       # Time in different power states
system.mem_ctrls_0.memoryStateTime::ACT_PDN            0                       # Time in different power states
system.mem_ctrls_1.actEnergy                128845080                       # Energy for activate commands per rank (pJ)
system.mem_ctrls_1.preEnergy                 70302375                       # Energy for precharge commands per rank (pJ)
system.mem_ctrls_1.readEnergy               677094600                       # Energy for read commands per rank (pJ)
system.mem_ctrls_1.writeEnergy              674587440                       # Energy for write commands per rank (pJ)
system.mem_ctrls_1.refreshEnergy           8058133200                       # Energy for refresh commands per rank (pJ)
system.mem_ctrls_1.actBackEnergy          18932122215                       # Energy for active background per rank (pJ)
system.mem_ctrls_1.preBackEnergy          57416910000                       # Energy for precharge background per rank (pJ)
system.mem_ctrls_1.totalEnergy            85957994910                       # Total energy per rank (pJ)
system.mem_ctrls_1.averagePower            696.730422                       # Core power per rank (mW)
system.mem_ctrls_1.memoryStateTime::IDLE  95407785253                       # Time in different power states
system.mem_ctrls_1.memoryStateTime::REF    4119700000                       # Time in different power states
system.mem_ctrls_1.memoryStateTime::PRE_PDN            0                       # Time in different power states
system.mem_ctrls_1.memoryStateTime::ACT   23846153747                       # Time in different power states
system.mem_ctrls_1.memoryStateTime::ACT_PDN            0                       # Time in different power states
system.ruby_clk_domain.clock                      500                       # Clock period in ticks
system.ruby.phys_mem.bytes_read::cpu.inst    670520160                       # Number of bytes read from this memory
system.ruby.phys_mem.bytes_read::cpu.data    125207494                       # Number of bytes read from this memory
system.ruby.phys_mem.bytes_read::gpu.ce       5152908                       # Number of bytes read from this memory
system.ruby.phys_mem.bytes_read::gpu.shader_cores00.data     26169472                       # Number of bytes read from this memory
system.ruby.phys_mem.bytes_read::gpu.shader_cores00.inst          472                       # Number of bytes read from this memory
system.ruby.phys_mem.bytes_read::gpu.shader_cores01.data     25949888                       # Number of bytes read from this memory
system.ruby.phys_mem.bytes_read::gpu.shader_cores01.inst          472                       # Number of bytes read from this memory
system.ruby.phys_mem.bytes_read::gpu.shader_cores02.data     26657024                       # Number of bytes read from this memory
system.ruby.phys_mem.bytes_read::gpu.shader_cores02.inst          472                       # Number of bytes read from this memory
system.ruby.phys_mem.bytes_read::gpu.shader_cores03.data     24837280                       # Number of bytes read from this memory
system.ruby.phys_mem.bytes_read::gpu.shader_cores03.inst          472                       # Number of bytes read from this memory
system.ruby.phys_mem.bytes_read::gpu.shader_cores04.data     24888000                       # Number of bytes read from this memory
system.ruby.phys_mem.bytes_read::gpu.shader_cores04.inst          472                       # Number of bytes read from this memory
system.ruby.phys_mem.bytes_read::gpu.shader_cores05.data     26138144                       # Number of bytes read from this memory
system.ruby.phys_mem.bytes_read::gpu.shader_cores05.inst          472                       # Number of bytes read from this memory
system.ruby.phys_mem.bytes_read::gpu.shader_cores06.data     26134848                       # Number of bytes read from this memory
system.ruby.phys_mem.bytes_read::gpu.shader_cores06.inst          472                       # Number of bytes read from this memory
system.ruby.phys_mem.bytes_read::gpu.shader_cores07.data     26373632                       # Number of bytes read from this memory
system.ruby.phys_mem.bytes_read::gpu.shader_cores07.inst          472                       # Number of bytes read from this memory
system.ruby.phys_mem.bytes_read::gpu.shader_cores08.data     26625536                       # Number of bytes read from this memory
system.ruby.phys_mem.bytes_read::gpu.shader_cores08.inst          472                       # Number of bytes read from this memory
system.ruby.phys_mem.bytes_read::gpu.shader_cores09.data     25753792                       # Number of bytes read from this memory
system.ruby.phys_mem.bytes_read::gpu.shader_cores09.inst          472                       # Number of bytes read from this memory
system.ruby.phys_mem.bytes_read::gpu.shader_cores10.data     26381760                       # Number of bytes read from this memory
system.ruby.phys_mem.bytes_read::gpu.shader_cores10.inst          472                       # Number of bytes read from this memory
system.ruby.phys_mem.bytes_read::gpu.shader_cores11.data     25381504                       # Number of bytes read from this memory
system.ruby.phys_mem.bytes_read::gpu.shader_cores11.inst          472                       # Number of bytes read from this memory
system.ruby.phys_mem.bytes_read::gpu.shader_cores12.data     26056128                       # Number of bytes read from this memory
system.ruby.phys_mem.bytes_read::gpu.shader_cores12.inst          472                       # Number of bytes read from this memory
system.ruby.phys_mem.bytes_read::gpu.shader_cores13.data     26298880                       # Number of bytes read from this memory
system.ruby.phys_mem.bytes_read::gpu.shader_cores13.inst          472                       # Number of bytes read from this memory
system.ruby.phys_mem.bytes_read::gpu.shader_cores14.data     26340224                       # Number of bytes read from this memory
system.ruby.phys_mem.bytes_read::gpu.shader_cores14.inst          472                       # Number of bytes read from this memory
system.ruby.phys_mem.bytes_read::gpu.shader_cores15.data     26092096                       # Number of bytes read from this memory
system.ruby.phys_mem.bytes_read::gpu.shader_cores15.inst          472                       # Number of bytes read from this memory
system.ruby.phys_mem.bytes_read::total     1216966322                       # Number of bytes read from this memory
system.ruby.phys_mem.bytes_inst_read::cpu.inst    670520160                       # Number of instructions bytes read from this memory
system.ruby.phys_mem.bytes_inst_read::gpu.shader_cores00.inst          472                       # Number of instructions bytes read from this memory
system.ruby.phys_mem.bytes_inst_read::gpu.shader_cores01.inst          472                       # Number of instructions bytes read from this memory
system.ruby.phys_mem.bytes_inst_read::gpu.shader_cores02.inst          472                       # Number of instructions bytes read from this memory
system.ruby.phys_mem.bytes_inst_read::gpu.shader_cores03.inst          472                       # Number of instructions bytes read from this memory
system.ruby.phys_mem.bytes_inst_read::gpu.shader_cores04.inst          472                       # Number of instructions bytes read from this memory
system.ruby.phys_mem.bytes_inst_read::gpu.shader_cores05.inst          472                       # Number of instructions bytes read from this memory
system.ruby.phys_mem.bytes_inst_read::gpu.shader_cores06.inst          472                       # Number of instructions bytes read from this memory
system.ruby.phys_mem.bytes_inst_read::gpu.shader_cores07.inst          472                       # Number of instructions bytes read from this memory
system.ruby.phys_mem.bytes_inst_read::gpu.shader_cores08.inst          472                       # Number of instructions bytes read from this memory
system.ruby.phys_mem.bytes_inst_read::gpu.shader_cores09.inst          472                       # Number of instructions bytes read from this memory
system.ruby.phys_mem.bytes_inst_read::gpu.shader_cores10.inst          472                       # Number of instructions bytes read from this memory
system.ruby.phys_mem.bytes_inst_read::gpu.shader_cores11.inst          472                       # Number of instructions bytes read from this memory
system.ruby.phys_mem.bytes_inst_read::gpu.shader_cores12.inst          472                       # Number of instructions bytes read from this memory
system.ruby.phys_mem.bytes_inst_read::gpu.shader_cores13.inst          472                       # Number of instructions bytes read from this memory
system.ruby.phys_mem.bytes_inst_read::gpu.shader_cores14.inst          472                       # Number of instructions bytes read from this memory
system.ruby.phys_mem.bytes_inst_read::gpu.shader_cores15.inst          472                       # Number of instructions bytes read from this memory
system.ruby.phys_mem.bytes_inst_read::total    670527712                       # Number of instructions bytes read from this memory
system.ruby.phys_mem.bytes_written::cpu.data     30918240                       # Number of bytes written to this memory
system.ruby.phys_mem.bytes_written::gpu.ce      5152908                       # Number of bytes written to this memory
system.ruby.phys_mem.bytes_written::gpu.shader_cores00.data      2037568                       # Number of bytes written to this memory
system.ruby.phys_mem.bytes_written::gpu.shader_cores01.data      2038080                       # Number of bytes written to this memory
system.ruby.phys_mem.bytes_written::gpu.shader_cores02.data      2041536                       # Number of bytes written to this memory
system.ruby.phys_mem.bytes_written::gpu.shader_cores03.data      2038052                       # Number of bytes written to this memory
system.ruby.phys_mem.bytes_written::gpu.shader_cores04.data      2041568                       # Number of bytes written to this memory
system.ruby.phys_mem.bytes_written::gpu.shader_cores05.data      2041348                       # Number of bytes written to this memory
system.ruby.phys_mem.bytes_written::gpu.shader_cores06.data      2040608                       # Number of bytes written to this memory
system.ruby.phys_mem.bytes_written::gpu.shader_cores07.data      2040608                       # Number of bytes written to this memory
system.ruby.phys_mem.bytes_written::gpu.shader_cores08.data      2038432                       # Number of bytes written to this memory
system.ruby.phys_mem.bytes_written::gpu.shader_cores09.data      2036416                       # Number of bytes written to this memory
system.ruby.phys_mem.bytes_written::gpu.shader_cores10.data      2039968                       # Number of bytes written to this memory
system.ruby.phys_mem.bytes_written::gpu.shader_cores11.data      2038848                       # Number of bytes written to this memory
system.ruby.phys_mem.bytes_written::gpu.shader_cores12.data      2038336                       # Number of bytes written to this memory
system.ruby.phys_mem.bytes_written::gpu.shader_cores13.data      2038208                       # Number of bytes written to this memory
system.ruby.phys_mem.bytes_written::gpu.shader_cores14.data      2037632                       # Number of bytes written to this memory
system.ruby.phys_mem.bytes_written::gpu.shader_cores15.data      2039616                       # Number of bytes written to this memory
system.ruby.phys_mem.bytes_written::total     68697972                       # Number of bytes written to this memory
system.ruby.phys_mem.num_reads::cpu.inst     83815020                       # Number of read requests responded to by this memory
system.ruby.phys_mem.num_reads::cpu.data     25194405                       # Number of read requests responded to by this memory
system.ruby.phys_mem.num_reads::gpu.ce          40268                       # Number of read requests responded to by this memory
system.ruby.phys_mem.num_reads::gpu.shader_cores00.data       454848                       # Number of read requests responded to by this memory
system.ruby.phys_mem.num_reads::gpu.shader_cores00.inst           30                       # Number of read requests responded to by this memory
system.ruby.phys_mem.num_reads::gpu.shader_cores01.data       449101                       # Number of read requests responded to by this memory
system.ruby.phys_mem.num_reads::gpu.shader_cores01.inst           30                       # Number of read requests responded to by this memory
system.ruby.phys_mem.num_reads::gpu.shader_cores02.data       458479                       # Number of read requests responded to by this memory
system.ruby.phys_mem.num_reads::gpu.shader_cores02.inst           30                       # Number of read requests responded to by this memory
system.ruby.phys_mem.num_reads::gpu.shader_cores03.data       440752                       # Number of read requests responded to by this memory
system.ruby.phys_mem.num_reads::gpu.shader_cores03.inst           30                       # Number of read requests responded to by this memory
system.ruby.phys_mem.num_reads::gpu.shader_cores04.data       442482                       # Number of read requests responded to by this memory
system.ruby.phys_mem.num_reads::gpu.shader_cores04.inst           30                       # Number of read requests responded to by this memory
system.ruby.phys_mem.num_reads::gpu.shader_cores05.data       450100                       # Number of read requests responded to by this memory
system.ruby.phys_mem.num_reads::gpu.shader_cores05.inst           30                       # Number of read requests responded to by this memory
system.ruby.phys_mem.num_reads::gpu.shader_cores06.data       458453                       # Number of read requests responded to by this memory
system.ruby.phys_mem.num_reads::gpu.shader_cores06.inst           30                       # Number of read requests responded to by this memory
system.ruby.phys_mem.num_reads::gpu.shader_cores07.data       458951                       # Number of read requests responded to by this memory
system.ruby.phys_mem.num_reads::gpu.shader_cores07.inst           30                       # Number of read requests responded to by this memory
system.ruby.phys_mem.num_reads::gpu.shader_cores08.data       460127                       # Number of read requests responded to by this memory
system.ruby.phys_mem.num_reads::gpu.shader_cores08.inst           30                       # Number of read requests responded to by this memory
system.ruby.phys_mem.num_reads::gpu.shader_cores09.data       449688                       # Number of read requests responded to by this memory
system.ruby.phys_mem.num_reads::gpu.shader_cores09.inst           30                       # Number of read requests responded to by this memory
system.ruby.phys_mem.num_reads::gpu.shader_cores10.data       455089                       # Number of read requests responded to by this memory
system.ruby.phys_mem.num_reads::gpu.shader_cores10.inst           30                       # Number of read requests responded to by this memory
system.ruby.phys_mem.num_reads::gpu.shader_cores11.data       448804                       # Number of read requests responded to by this memory
system.ruby.phys_mem.num_reads::gpu.shader_cores11.inst           30                       # Number of read requests responded to by this memory
system.ruby.phys_mem.num_reads::gpu.shader_cores12.data       450903                       # Number of read requests responded to by this memory
system.ruby.phys_mem.num_reads::gpu.shader_cores12.inst           30                       # Number of read requests responded to by this memory
system.ruby.phys_mem.num_reads::gpu.shader_cores13.data       459814                       # Number of read requests responded to by this memory
system.ruby.phys_mem.num_reads::gpu.shader_cores13.inst           30                       # Number of read requests responded to by this memory
system.ruby.phys_mem.num_reads::gpu.shader_cores14.data       460036                       # Number of read requests responded to by this memory
system.ruby.phys_mem.num_reads::gpu.shader_cores14.inst           30                       # Number of read requests responded to by this memory
system.ruby.phys_mem.num_reads::gpu.shader_cores15.data       455595                       # Number of read requests responded to by this memory
system.ruby.phys_mem.num_reads::gpu.shader_cores15.inst           30                       # Number of read requests responded to by this memory
system.ruby.phys_mem.num_reads::total       116303395                       # Number of read requests responded to by this memory
system.ruby.phys_mem.num_writes::cpu.data      6787418                       # Number of write requests responded to by this memory
system.ruby.phys_mem.num_writes::gpu.ce         40261                       # Number of write requests responded to by this memory
system.ruby.phys_mem.num_writes::gpu.shader_cores00.data        90704                       # Number of write requests responded to by this memory
system.ruby.phys_mem.num_writes::gpu.shader_cores01.data        90740                       # Number of write requests responded to by this memory
system.ruby.phys_mem.num_writes::gpu.shader_cores02.data        90878                       # Number of write requests responded to by this memory
system.ruby.phys_mem.num_writes::gpu.shader_cores03.data        90718                       # Number of write requests responded to by this memory
system.ruby.phys_mem.num_writes::gpu.shader_cores04.data        90938                       # Number of write requests responded to by this memory
system.ruby.phys_mem.num_writes::gpu.shader_cores05.data        91096                       # Number of write requests responded to by this memory
system.ruby.phys_mem.num_writes::gpu.shader_cores06.data        90983                       # Number of write requests responded to by this memory
system.ruby.phys_mem.num_writes::gpu.shader_cores07.data        91149                       # Number of write requests responded to by this memory
system.ruby.phys_mem.num_writes::gpu.shader_cores08.data        90917                       # Number of write requests responded to by this memory
system.ruby.phys_mem.num_writes::gpu.shader_cores09.data        90590                       # Number of write requests responded to by this memory
system.ruby.phys_mem.num_writes::gpu.shader_cores10.data        91007                       # Number of write requests responded to by this memory
system.ruby.phys_mem.num_writes::gpu.shader_cores11.data        90701                       # Number of write requests responded to by this memory
system.ruby.phys_mem.num_writes::gpu.shader_cores12.data        90781                       # Number of write requests responded to by this memory
system.ruby.phys_mem.num_writes::gpu.shader_cores13.data        90877                       # Number of write requests responded to by this memory
system.ruby.phys_mem.num_writes::gpu.shader_cores14.data        90655                       # Number of write requests responded to by this memory
system.ruby.phys_mem.num_writes::gpu.shader_cores15.data        91040                       # Number of write requests responded to by this memory
system.ruby.phys_mem.num_writes::total        8281453                       # Number of write requests responded to by this memory
system.ruby.phys_mem.bw_read::cpu.inst     5434797627                       # Total read bandwidth from this memory (bytes/s)
system.ruby.phys_mem.bw_read::cpu.data     1014850010                       # Total read bandwidth from this memory (bytes/s)
system.ruby.phys_mem.bw_read::gpu.ce         41766100                       # Total read bandwidth from this memory (bytes/s)
system.ruby.phys_mem.bw_read::gpu.shader_cores00.data    212112615                       # Total read bandwidth from this memory (bytes/s)
system.ruby.phys_mem.bw_read::gpu.shader_cores00.inst         3826                       # Total read bandwidth from this memory (bytes/s)
system.ruby.phys_mem.bw_read::gpu.shader_cores01.data    210332810                       # Total read bandwidth from this memory (bytes/s)
system.ruby.phys_mem.bw_read::gpu.shader_cores01.inst         3826                       # Total read bandwidth from this memory (bytes/s)
system.ruby.phys_mem.bw_read::gpu.shader_cores02.data    216064392                       # Total read bandwidth from this memory (bytes/s)
system.ruby.phys_mem.bw_read::gpu.shader_cores02.inst         3826                       # Total read bandwidth from this memory (bytes/s)
system.ruby.phys_mem.bw_read::gpu.shader_cores03.data    201314738                       # Total read bandwidth from this memory (bytes/s)
system.ruby.phys_mem.bw_read::gpu.shader_cores03.inst         3826                       # Total read bandwidth from this memory (bytes/s)
system.ruby.phys_mem.bw_read::gpu.shader_cores04.data    201725841                       # Total read bandwidth from this memory (bytes/s)
system.ruby.phys_mem.bw_read::gpu.shader_cores04.inst         3826                       # Total read bandwidth from this memory (bytes/s)
system.ruby.phys_mem.bw_read::gpu.shader_cores05.data    211858690                       # Total read bandwidth from this memory (bytes/s)
system.ruby.phys_mem.bw_read::gpu.shader_cores05.inst         3826                       # Total read bandwidth from this memory (bytes/s)
system.ruby.phys_mem.bw_read::gpu.shader_cores06.data    211831975                       # Total read bandwidth from this memory (bytes/s)
system.ruby.phys_mem.bw_read::gpu.shader_cores06.inst         3826                       # Total read bandwidth from this memory (bytes/s)
system.ruby.phys_mem.bw_read::gpu.shader_cores07.data    213767402                       # Total read bandwidth from this memory (bytes/s)
system.ruby.phys_mem.bw_read::gpu.shader_cores07.inst         3826                       # Total read bandwidth from this memory (bytes/s)
system.ruby.phys_mem.bw_read::gpu.shader_cores08.data    215809171                       # Total read bandwidth from this memory (bytes/s)
system.ruby.phys_mem.bw_read::gpu.shader_cores08.inst         3826                       # Total read bandwidth from this memory (bytes/s)
system.ruby.phys_mem.bw_read::gpu.shader_cores09.data    208743385                       # Total read bandwidth from this memory (bytes/s)
system.ruby.phys_mem.bw_read::gpu.shader_cores09.inst         3826                       # Total read bandwidth from this memory (bytes/s)
system.ruby.phys_mem.bw_read::gpu.shader_cores10.data    213833282                       # Total read bandwidth from this memory (bytes/s)
system.ruby.phys_mem.bw_read::gpu.shader_cores10.inst         3826                       # Total read bandwidth from this memory (bytes/s)
system.ruby.phys_mem.bw_read::gpu.shader_cores11.data    205725862                       # Total read bandwidth from this memory (bytes/s)
system.ruby.phys_mem.bw_read::gpu.shader_cores11.inst         3826                       # Total read bandwidth from this memory (bytes/s)
system.ruby.phys_mem.bw_read::gpu.shader_cores12.data    211193922                       # Total read bandwidth from this memory (bytes/s)
system.ruby.phys_mem.bw_read::gpu.shader_cores12.inst         3826                       # Total read bandwidth from this memory (bytes/s)
system.ruby.phys_mem.bw_read::gpu.shader_cores13.data    213161511                       # Total read bandwidth from this memory (bytes/s)
system.ruby.phys_mem.bw_read::gpu.shader_cores13.inst         3826                       # Total read bandwidth from this memory (bytes/s)
system.ruby.phys_mem.bw_read::gpu.shader_cores14.data    213496619                       # Total read bandwidth from this memory (bytes/s)
system.ruby.phys_mem.bw_read::gpu.shader_cores14.inst         3826                       # Total read bandwidth from this memory (bytes/s)
system.ruby.phys_mem.bw_read::gpu.shader_cores15.data    211485455                       # Total read bandwidth from this memory (bytes/s)
system.ruby.phys_mem.bw_read::gpu.shader_cores15.inst         3826                       # Total read bandwidth from this memory (bytes/s)
system.ruby.phys_mem.bw_read::total        9863932621                       # Total read bandwidth from this memory (bytes/s)
system.ruby.phys_mem.bw_inst_read::cpu.inst   5434797627                       # Instruction read bandwidth from this memory (bytes/s)
system.ruby.phys_mem.bw_inst_read::gpu.shader_cores00.inst         3826                       # Instruction read bandwidth from this memory (bytes/s)
system.ruby.phys_mem.bw_inst_read::gpu.shader_cores01.inst         3826                       # Instruction read bandwidth from this memory (bytes/s)
system.ruby.phys_mem.bw_inst_read::gpu.shader_cores02.inst         3826                       # Instruction read bandwidth from this memory (bytes/s)
system.ruby.phys_mem.bw_inst_read::gpu.shader_cores03.inst         3826                       # Instruction read bandwidth from this memory (bytes/s)
system.ruby.phys_mem.bw_inst_read::gpu.shader_cores04.inst         3826                       # Instruction read bandwidth from this memory (bytes/s)
system.ruby.phys_mem.bw_inst_read::gpu.shader_cores05.inst         3826                       # Instruction read bandwidth from this memory (bytes/s)
system.ruby.phys_mem.bw_inst_read::gpu.shader_cores06.inst         3826                       # Instruction read bandwidth from this memory (bytes/s)
system.ruby.phys_mem.bw_inst_read::gpu.shader_cores07.inst         3826                       # Instruction read bandwidth from this memory (bytes/s)
system.ruby.phys_mem.bw_inst_read::gpu.shader_cores08.inst         3826                       # Instruction read bandwidth from this memory (bytes/s)
system.ruby.phys_mem.bw_inst_read::gpu.shader_cores09.inst         3826                       # Instruction read bandwidth from this memory (bytes/s)
system.ruby.phys_mem.bw_inst_read::gpu.shader_cores10.inst         3826                       # Instruction read bandwidth from this memory (bytes/s)
system.ruby.phys_mem.bw_inst_read::gpu.shader_cores11.inst         3826                       # Instruction read bandwidth from this memory (bytes/s)
system.ruby.phys_mem.bw_inst_read::gpu.shader_cores12.inst         3826                       # Instruction read bandwidth from this memory (bytes/s)
system.ruby.phys_mem.bw_inst_read::gpu.shader_cores13.inst         3826                       # Instruction read bandwidth from this memory (bytes/s)
system.ruby.phys_mem.bw_inst_read::gpu.shader_cores14.inst         3826                       # Instruction read bandwidth from this memory (bytes/s)
system.ruby.phys_mem.bw_inst_read::gpu.shader_cores15.inst         3826                       # Instruction read bandwidth from this memory (bytes/s)
system.ruby.phys_mem.bw_inst_read::total   5434858839                       # Instruction read bandwidth from this memory (bytes/s)
system.ruby.phys_mem.bw_write::cpu.data     250603020                       # Write bandwidth from this memory (bytes/s)
system.ruby.phys_mem.bw_write::gpu.ce        41766100                       # Write bandwidth from this memory (bytes/s)
system.ruby.phys_mem.bw_write::gpu.shader_cores00.data     16515193                       # Write bandwidth from this memory (bytes/s)
system.ruby.phys_mem.bw_write::gpu.shader_cores01.data     16519343                       # Write bandwidth from this memory (bytes/s)
system.ruby.phys_mem.bw_write::gpu.shader_cores02.data     16547355                       # Write bandwidth from this memory (bytes/s)
system.ruby.phys_mem.bw_write::gpu.shader_cores03.data     16519116                       # Write bandwidth from this memory (bytes/s)
system.ruby.phys_mem.bw_write::gpu.shader_cores04.data     16547614                       # Write bandwidth from this memory (bytes/s)
system.ruby.phys_mem.bw_write::gpu.shader_cores05.data     16545831                       # Write bandwidth from this memory (bytes/s)
system.ruby.phys_mem.bw_write::gpu.shader_cores06.data     16539833                       # Write bandwidth from this memory (bytes/s)
system.ruby.phys_mem.bw_write::gpu.shader_cores07.data     16539833                       # Write bandwidth from this memory (bytes/s)
system.ruby.phys_mem.bw_write::gpu.shader_cores08.data     16522196                       # Write bandwidth from this memory (bytes/s)
system.ruby.phys_mem.bw_write::gpu.shader_cores09.data     16505855                       # Write bandwidth from this memory (bytes/s)
system.ruby.phys_mem.bw_write::gpu.shader_cores10.data     16534646                       # Write bandwidth from this memory (bytes/s)
system.ruby.phys_mem.bw_write::gpu.shader_cores11.data     16525568                       # Write bandwidth from this memory (bytes/s)
system.ruby.phys_mem.bw_write::gpu.shader_cores12.data     16521418                       # Write bandwidth from this memory (bytes/s)
system.ruby.phys_mem.bw_write::gpu.shader_cores13.data     16520380                       # Write bandwidth from this memory (bytes/s)
system.ruby.phys_mem.bw_write::gpu.shader_cores14.data     16515712                       # Write bandwidth from this memory (bytes/s)
system.ruby.phys_mem.bw_write::gpu.shader_cores15.data     16531793                       # Write bandwidth from this memory (bytes/s)
system.ruby.phys_mem.bw_write::total        556820805                       # Write bandwidth from this memory (bytes/s)
system.ruby.phys_mem.bw_total::cpu.inst    5434797627                       # Total bandwidth to/from this memory (bytes/s)
system.ruby.phys_mem.bw_total::cpu.data    1265453031                       # Total bandwidth to/from this memory (bytes/s)
system.ruby.phys_mem.bw_total::gpu.ce        83532200                       # Total bandwidth to/from this memory (bytes/s)
system.ruby.phys_mem.bw_total::gpu.shader_cores00.data    228627808                       # Total bandwidth to/from this memory (bytes/s)
system.ruby.phys_mem.bw_total::gpu.shader_cores00.inst         3826                       # Total bandwidth to/from this memory (bytes/s)
system.ruby.phys_mem.bw_total::gpu.shader_cores01.data    226852153                       # Total bandwidth to/from this memory (bytes/s)
system.ruby.phys_mem.bw_total::gpu.shader_cores01.inst         3826                       # Total bandwidth to/from this memory (bytes/s)
system.ruby.phys_mem.bw_total::gpu.shader_cores02.data    232611747                       # Total bandwidth to/from this memory (bytes/s)
system.ruby.phys_mem.bw_total::gpu.shader_cores02.inst         3826                       # Total bandwidth to/from this memory (bytes/s)
system.ruby.phys_mem.bw_total::gpu.shader_cores03.data    217833854                       # Total bandwidth to/from this memory (bytes/s)
system.ruby.phys_mem.bw_total::gpu.shader_cores03.inst         3826                       # Total bandwidth to/from this memory (bytes/s)
system.ruby.phys_mem.bw_total::gpu.shader_cores04.data    218273455                       # Total bandwidth to/from this memory (bytes/s)
system.ruby.phys_mem.bw_total::gpu.shader_cores04.inst         3826                       # Total bandwidth to/from this memory (bytes/s)
system.ruby.phys_mem.bw_total::gpu.shader_cores05.data    228404521                       # Total bandwidth to/from this memory (bytes/s)
system.ruby.phys_mem.bw_total::gpu.shader_cores05.inst         3826                       # Total bandwidth to/from this memory (bytes/s)
system.ruby.phys_mem.bw_total::gpu.shader_cores06.data    228371808                       # Total bandwidth to/from this memory (bytes/s)
system.ruby.phys_mem.bw_total::gpu.shader_cores06.inst         3826                       # Total bandwidth to/from this memory (bytes/s)
system.ruby.phys_mem.bw_total::gpu.shader_cores07.data    230307235                       # Total bandwidth to/from this memory (bytes/s)
system.ruby.phys_mem.bw_total::gpu.shader_cores07.inst         3826                       # Total bandwidth to/from this memory (bytes/s)
system.ruby.phys_mem.bw_total::gpu.shader_cores08.data    232331367                       # Total bandwidth to/from this memory (bytes/s)
system.ruby.phys_mem.bw_total::gpu.shader_cores08.inst         3826                       # Total bandwidth to/from this memory (bytes/s)
system.ruby.phys_mem.bw_total::gpu.shader_cores09.data    225249240                       # Total bandwidth to/from this memory (bytes/s)
system.ruby.phys_mem.bw_total::gpu.shader_cores09.inst         3826                       # Total bandwidth to/from this memory (bytes/s)
system.ruby.phys_mem.bw_total::gpu.shader_cores10.data    230367928                       # Total bandwidth to/from this memory (bytes/s)
system.ruby.phys_mem.bw_total::gpu.shader_cores10.inst         3826                       # Total bandwidth to/from this memory (bytes/s)
system.ruby.phys_mem.bw_total::gpu.shader_cores11.data    222251429                       # Total bandwidth to/from this memory (bytes/s)
system.ruby.phys_mem.bw_total::gpu.shader_cores11.inst         3826                       # Total bandwidth to/from this memory (bytes/s)
system.ruby.phys_mem.bw_total::gpu.shader_cores12.data    227715340                       # Total bandwidth to/from this memory (bytes/s)
system.ruby.phys_mem.bw_total::gpu.shader_cores12.inst         3826                       # Total bandwidth to/from this memory (bytes/s)
system.ruby.phys_mem.bw_total::gpu.shader_cores13.data    229681891                       # Total bandwidth to/from this memory (bytes/s)
system.ruby.phys_mem.bw_total::gpu.shader_cores13.inst         3826                       # Total bandwidth to/from this memory (bytes/s)
system.ruby.phys_mem.bw_total::gpu.shader_cores14.data    230012330                       # Total bandwidth to/from this memory (bytes/s)
system.ruby.phys_mem.bw_total::gpu.shader_cores14.inst         3826                       # Total bandwidth to/from this memory (bytes/s)
system.ruby.phys_mem.bw_total::gpu.shader_cores15.data    228017248                       # Total bandwidth to/from this memory (bytes/s)
system.ruby.phys_mem.bw_total::gpu.shader_cores15.inst         3826                       # Total bandwidth to/from this memory (bytes/s)
system.ruby.phys_mem.bw_total::total      10420753426                       # Total bandwidth to/from this memory (bytes/s)
system.cpu_voltage_domain.voltage                   1                       # Voltage in Volts
system.cpu_clk_domain.clock                       500                       # Clock period in ticks
system.cpu.apic_clk_domain.clock                 8000                       # Clock period in ticks
system.cpu.workload.num_syscalls                  112                       # Number of system calls
system.cpu.numCycles                        246750737                       # number of cpu cycles simulated
system.cpu.numWorkItemsStarted                      0                       # number of work items this cpu started
system.cpu.numWorkItemsCompleted                    0                       # number of work items this cpu completed
system.cpu.committedInsts                    63062497                       # Number of instructions committed
system.cpu.committedOps                     104619613                       # Number of ops (including micro ops) committed
system.cpu.num_int_alu_accesses              93675188                       # Number of integer alu accesses
system.cpu.num_fp_alu_accesses               16019404                       # Number of float alu accesses
system.cpu.num_func_calls                      749800                       # number of times a function call or return occured
system.cpu.num_conditional_control_insts      3981297                       # number of instructions that are conditional controls
system.cpu.num_int_insts                     93675188                       # number of integer instructions
system.cpu.num_fp_insts                      16019404                       # number of float instructions
system.cpu.num_int_register_reads           209648828                       # number of times the integer registers were read
system.cpu.num_int_register_writes           82179036                       # number of times the integer registers were written
system.cpu.num_fp_register_reads             13054172                       # number of times the floating registers were read
system.cpu.num_fp_register_writes            13762733                       # number of times the floating registers were written
system.cpu.num_cc_register_reads             26764078                       # number of times the CC registers were read
system.cpu.num_cc_register_writes            34219315                       # number of times the CC registers were written
system.cpu.num_mem_refs                      31981271                       # number of memory refs
system.cpu.num_load_insts                    25194136                       # Number of load instructions
system.cpu.num_store_insts                    6787135                       # Number of store instructions
system.cpu.num_idle_cycles               10243809.453917                       # Number of idle cycles
system.cpu.num_busy_cycles               236506927.546083                       # Number of busy cycles
system.cpu.not_idle_fraction                 0.958485                       # Percentage of non-idle cycles
system.cpu.idle_fraction                     0.041515                       # Percentage of idle cycles
system.cpu.Branches                           5266635                       # Number of branches fetched
system.cpu.op_class::No_OpClass                115200      0.11%      0.11% # Class of executed instruction
system.cpu.op_class::IntAlu                  57818657     55.27%     55.38% # Class of executed instruction
system.cpu.op_class::IntMult                  3505935      3.35%     58.73% # Class of executed instruction
system.cpu.op_class::IntDiv                    402960      0.39%     59.11% # Class of executed instruction
system.cpu.op_class::FloatAdd                10795590     10.32%     69.43% # Class of executed instruction
system.cpu.op_class::FloatCmp                       0      0.00%     69.43% # Class of executed instruction
system.cpu.op_class::FloatCvt                       0      0.00%     69.43% # Class of executed instruction
system.cpu.op_class::FloatMult                      0      0.00%     69.43% # Class of executed instruction
system.cpu.op_class::FloatDiv                       0      0.00%     69.43% # Class of executed instruction
system.cpu.op_class::FloatSqrt                      0      0.00%     69.43% # Class of executed instruction
system.cpu.op_class::SimdAdd                        0      0.00%     69.43% # Class of executed instruction
system.cpu.op_class::SimdAddAcc                     0      0.00%     69.43% # Class of executed instruction
system.cpu.op_class::SimdAlu                        0      0.00%     69.43% # Class of executed instruction
system.cpu.op_class::SimdCmp                        0      0.00%     69.43% # Class of executed instruction
system.cpu.op_class::SimdCvt                        0      0.00%     69.43% # Class of executed instruction
system.cpu.op_class::SimdMisc                       0      0.00%     69.43% # Class of executed instruction
system.cpu.op_class::SimdMult                       0      0.00%     69.43% # Class of executed instruction
system.cpu.op_class::SimdMultAcc                    0      0.00%     69.43% # Class of executed instruction
system.cpu.op_class::SimdShift                      0      0.00%     69.43% # Class of executed instruction
system.cpu.op_class::SimdShiftAcc                   0      0.00%     69.43% # Class of executed instruction
system.cpu.op_class::SimdSqrt                       0      0.00%     69.43% # Class of executed instruction
system.cpu.op_class::SimdFloatAdd                   0      0.00%     69.43% # Class of executed instruction
system.cpu.op_class::SimdFloatAlu                   0      0.00%     69.43% # Class of executed instruction
system.cpu.op_class::SimdFloatCmp                   0      0.00%     69.43% # Class of executed instruction
system.cpu.op_class::SimdFloatCvt                   0      0.00%     69.43% # Class of executed instruction
system.cpu.op_class::SimdFloatDiv                   0      0.00%     69.43% # Class of executed instruction
system.cpu.op_class::SimdFloatMisc                  0      0.00%     69.43% # Class of executed instruction
system.cpu.op_class::SimdFloatMult                  0      0.00%     69.43% # Class of executed instruction
system.cpu.op_class::SimdFloatMultAcc               0      0.00%     69.43% # Class of executed instruction
system.cpu.op_class::SimdFloatSqrt                  0      0.00%     69.43% # Class of executed instruction
system.cpu.op_class::MemRead                 25194136     24.08%     93.51% # Class of executed instruction
system.cpu.op_class::MemWrite                 6787135      6.49%    100.00% # Class of executed instruction
system.cpu.op_class::IprAccess                      0      0.00%    100.00% # Class of executed instruction
system.cpu.op_class::InstPrefetch                   0      0.00%    100.00% # Class of executed instruction
system.cpu.op_class::total                  104619613                       # Class of executed instruction
system.gpu.clk_domain.voltage_domain.voltage            1                       # Voltage in Volts
system.gpu.clk_domain.clock                      1429                       # Clock period in ticks
system.gpu.dram_wrapper.clk_domain.clock          541                       # Clock period in ticks
system.gpu.icnt_wrapper.clk_domain.clock         2858                       # Clock period in ticks
system.ruby.delayHist::bucket_size               2048                       # delay histogram for all message
system.ruby.delayHist::max_bucket               20479                       # delay histogram for all message
system.ruby.delayHist::samples                1910210                       # delay histogram for all message
system.ruby.delayHist::mean               1127.159528                       # delay histogram for all message
system.ruby.delayHist::stdev              2260.394706                       # delay histogram for all message
system.ruby.delayHist                    |     1495608     78.30%     78.30% |      173571      9.09%     87.38% |      176795      9.26%     96.64% |       26800      1.40%     98.04% |       13478      0.71%     98.75% |       23958      1.25%    100.00% |           0      0.00%    100.00% |           0      0.00%    100.00% |           0      0.00%    100.00% |           0      0.00%    100.00% # delay histogram for all message
system.ruby.delayHist::total                  1910210                       # delay histogram for all message
system.ruby.outstanding_req_hist::bucket_size           16                      
system.ruby.outstanding_req_hist::max_bucket          159                      
system.ruby.outstanding_req_hist::samples    124584848                      
system.ruby.outstanding_req_hist::mean       2.554680                      
system.ruby.outstanding_req_hist::gmean      1.111472                      
system.ruby.outstanding_req_hist::stdev     11.108803                      
system.ruby.outstanding_req_hist         |   122100685     98.01%     98.01% |      155281      0.12%     98.13% |      123446      0.10%     98.23% |      247722      0.20%     98.43% |      667723      0.54%     98.96% |      360338      0.29%     99.25% |      850926      0.68%     99.94% |       11047      0.01%     99.95% |       67680      0.05%    100.00% |           0      0.00%    100.00%
system.ruby.outstanding_req_hist::total     124584848                      
system.ruby.latency_hist::bucket_size            4096                      
system.ruby.latency_hist::max_bucket            40959                      
system.ruby.latency_hist::samples           124584848                      
system.ruby.latency_hist::mean              71.877534                      
system.ruby.latency_hist::gmean              1.142911                      
system.ruby.latency_hist::stdev            642.349144                      
system.ruby.latency_hist                 |   123327443     98.99%     98.99% |     1166767      0.94%     99.93% |       38287      0.03%     99.96% |       32109      0.03%     99.98% |       16637      0.01%    100.00% |        2896      0.00%    100.00% |         633      0.00%    100.00% |          76      0.00%    100.00% |           0      0.00%    100.00% |           0      0.00%    100.00%
system.ruby.latency_hist::total             124584848                      
system.ruby.hit_latency_hist::bucket_size         4096                      
system.ruby.hit_latency_hist::max_bucket        40959                      
system.ruby.hit_latency_hist::samples       124093583                      
system.ruby.hit_latency_hist::mean          57.851823                      
system.ruby.hit_latency_hist::gmean          1.108762                      
system.ruby.hit_latency_hist::stdev        577.055420                      
system.ruby.hit_latency_hist             |   123007951     99.13%     99.13% |     1013024      0.82%     99.94% |       33374      0.03%     99.97% |       25509      0.02%     99.99% |       10843      0.01%    100.00% |        2192      0.00%    100.00% |         614      0.00%    100.00% |          76      0.00%    100.00% |           0      0.00%    100.00% |           0      0.00%    100.00%
system.ruby.hit_latency_hist::total         124093583                      
system.ruby.miss_latency_hist::bucket_size         4096                      
system.ruby.miss_latency_hist::max_bucket        40959                      
system.ruby.miss_latency_hist::samples         491265                      
system.ruby.miss_latency_hist::mean       3614.773379                      
system.ruby.miss_latency_hist::gmean      2430.904476                      
system.ruby.miss_latency_hist::stdev      2814.730857                      
system.ruby.miss_latency_hist            |      319492     65.03%     65.03% |      153743     31.30%     96.33% |        4913      1.00%     97.33% |        6600      1.34%     98.67% |        5794      1.18%     99.85% |         704      0.14%    100.00% |          19      0.00%    100.00% |           0      0.00%    100.00% |           0      0.00%    100.00% |           0      0.00%    100.00%
system.ruby.miss_latency_hist::total           491265                      
system.ruby.L1Cache.incomplete_times               10                      
system.ruby.GPUL2Cache.incomplete_times        439778                      
system.ruby.Directory.incomplete_times          16657                      
system.gpu.shader_mmu.numPagefaults                 0                       # Number of Pagefaults
system.gpu.shader_mmu.numPagewalks              20925                       # Number of Pagewalks
system.gpu.shader_mmu.totalRequests             20925                       # Total number of requests
system.gpu.shader_mmu.l2hits                        0                       # Hits in the shared L2
system.gpu.shader_mmu.prefetchHits                  0                       # Number of prefetch hits
system.gpu.shader_mmu.numPrefetches                 0                       # Number of prefetchs
system.gpu.shader_mmu.prefetchFaults                0                       # Number of faults caused by prefetches
system.gpu.shader_mmu.pagefaultLatency::samples            0                       # Latency to complete the pagefault
system.gpu.shader_mmu.pagefaultLatency::mean          nan                       # Latency to complete the pagefault
system.gpu.shader_mmu.pagefaultLatency::gmean          nan                       # Latency to complete the pagefault
system.gpu.shader_mmu.pagefaultLatency::stdev          nan                       # Latency to complete the pagefault
system.gpu.shader_mmu.pagefaultLatency::0            0                       # Latency to complete the pagefault
system.gpu.shader_mmu.pagefaultLatency::1            0                       # Latency to complete the pagefault
system.gpu.shader_mmu.pagefaultLatency::2            0                       # Latency to complete the pagefault
system.gpu.shader_mmu.pagefaultLatency::3            0                       # Latency to complete the pagefault
system.gpu.shader_mmu.pagefaultLatency::4            0                       # Latency to complete the pagefault
system.gpu.shader_mmu.pagefaultLatency::5            0                       # Latency to complete the pagefault
system.gpu.shader_mmu.pagefaultLatency::6            0                       # Latency to complete the pagefault
system.gpu.shader_mmu.pagefaultLatency::7            0                       # Latency to complete the pagefault
system.gpu.shader_mmu.pagefaultLatency::8            0                       # Latency to complete the pagefault
[...]
system.ruby.L1Cache_Controller.M_W.Ifetch::total           26                      
system.ruby.L1Cache_Controller.M_W.Ack   |          13    100.00%    100.00% |           0      0.00%    100.00%
system.ruby.L1Cache_Controller.M_W.Ack::total           13                      
system.ruby.L1Cache_Controller.M_W.All_acks_no_sharers |       14260    100.00%    100.00% |           0      0.00%    100.00%
system.ruby.L1Cache_Controller.M_W.All_acks_no_sharers::total        14260                      
system.ruby.L1Cache_Controller.MM_W.Load |           4    100.00%    100.00% |           0      0.00%    100.00%
system.ruby.L1Cache_Controller.MM_W.Load::total            4                      
system.ruby.L1Cache_Controller.MM_W.Store |          14    100.00%    100.00% |           0      0.00%    100.00%
system.ruby.L1Cache_Controller.MM_W.Store::total           14                      
system.ruby.L1Cache_Controller.MM_W.Ack  |          41    100.00%    100.00% |           0      0.00%    100.00%
system.ruby.L1Cache_Controller.MM_W.Ack::total           41                      
system.ruby.L1Cache_Controller.MM_W.All_acks_no_sharers |       20565    100.00%    100.00% |           0      0.00%    100.00%
system.ruby.L1Cache_Controller.MM_W.All_acks_no_sharers::total        20565                      
system.ruby.L1Cache_Controller.IS.Ack    |       28509    100.00%    100.00% |           0      0.00%    100.00%
system.ruby.L1Cache_Controller.IS.Ack::total        28509                      
system.ruby.L1Cache_Controller.IS.Shared_Data |           2    100.00%    100.00% |           0      0.00%    100.00%
system.ruby.L1Cache_Controller.IS.Shared_Data::total            2                      
system.ruby.L1Cache_Controller.IS.Exclusive_Data |       14260    100.00%    100.00% |           0      0.00%    100.00%
system.ruby.L1Cache_Controller.IS.Exclusive_Data::total        14260                      
system.ruby.L1Cache_Controller.SS.All_acks |           2    100.00%    100.00% |           0      0.00%    100.00%
system.ruby.L1Cache_Controller.SS.All_acks::total            2                      
system.ruby.L1Cache_Controller.OI.Writeback_Ack |         578    100.00%    100.00% |           0      0.00%    100.00%
system.ruby.L1Cache_Controller.OI.Writeback_Ack::total          578                      
system.ruby.L1Cache_Controller.MI.Ifetch |           2    100.00%    100.00% |           0      0.00%    100.00%
system.ruby.L1Cache_Controller.MI.Ifetch::total            2                      
system.ruby.L1Cache_Controller.MI.Writeback_Ack |        7541    100.00%    100.00% |           0      0.00%    100.00%
system.ruby.L1Cache_Controller.MI.Writeback_Ack::total         7541                      
system.ruby.L1Cache_Controller.IT.Complete_L2_to_L1 |        7529    100.00%    100.00% |           0      0.00%    100.00%
system.ruby.L1Cache_Controller.IT.Complete_L2_to_L1::total         7529                      
system.ruby.L1Cache_Controller.OT.Complete_L2_to_L1 |         184    100.00%    100.00% |           0      0.00%    100.00%
system.ruby.L1Cache_Controller.OT.Complete_L2_to_L1::total          184                      
system.ruby.L1Cache_Controller.MT.Complete_L2_to_L1 |        7656    100.00%    100.00% |           0      0.00%    100.00%
system.ruby.L1Cache_Controller.MT.Complete_L2_to_L1::total         7656                      
system.ruby.L1Cache_Controller.MMT.Complete_L2_to_L1 |       30625    100.00%    100.00% |           0      0.00%    100.00%
system.ruby.L1Cache_Controller.MMT.Complete_L2_to_L1::total        30625                      
system.ruby.GPUL1Cache_Controller.Load   |      454848      6.27%      6.27% |      449101      6.19%     12.46% |      458479      6.32%     18.78% |      440752      6.08%     24.86% |      442482      6.10%     30.96% |      450100      6.21%     37.17% |      458453      6.32%     43.49% |      458951      6.33%     49.81% |      460127      6.34%     56.16% |      449688      6.20%     62.36% |      455089      6.27%     68.63% |      448804      6.19%     74.82% |      450903      6.22%     81.04% |      459814      6.34%     87.38% |      460036      6.34%     93.72% |      455595      6.28%    100.00%
system.ruby.GPUL1Cache_Controller.Load::total      7253222                      
system.ruby.GPUL1Cache_Controller.Ifetch |          30      6.25%      6.25% |          30      6.25%     12.50% |          30      6.25%     18.75% |          30      6.25%     25.00% |          30      6.25%     31.25% |          30      6.25%     37.50% |          30      6.25%     43.75% |          30      6.25%     50.00% |          30      6.25%     56.25% |          30      6.25%     62.50% |          30      6.25%     68.75% |          30      6.25%     75.00% |          30      6.25%     81.25% |          30      6.25%     87.50% |          30      6.25%     93.75% |          30      6.25%    100.00%
system.ruby.GPUL1Cache_Controller.Ifetch::total          480                      
system.ruby.GPUL1Cache_Controller.Store  |       90704      6.24%      6.24% |       90740      6.24%     12.48% |       90878      6.25%     18.73% |       90718      6.24%     24.97% |       90938      6.26%     31.23% |       91096      6.27%     37.49% |       90983      6.26%     43.75% |       91149      6.27%     50.02% |       90917      6.25%     56.28% |       90590      6.23%     62.51% |       91007      6.26%     68.77% |       90701      6.24%     75.01% |       90781      6.24%     81.25% |       90877      6.25%     87.50% |       90655      6.24%     93.74% |       91040      6.26%    100.00%
system.ruby.GPUL1Cache_Controller.Store::total      1453774                      
system.ruby.GPUL1Cache_Controller.Data   |       28707      6.29%      6.29% |       28541      6.25%     12.54% |       28763      6.30%     18.84% |       28390      6.22%     25.06% |       28487      6.24%     31.31% |       28260      6.19%     37.50% |       28748      6.30%     43.79% |       28368      6.22%     50.01% |       28485      6.24%     56.25% |       28430      6.23%     62.48% |       28616      6.27%     68.75% |       28616      6.27%     75.02% |       28630      6.27%     81.29% |       28526      6.25%     87.54% |       28376      6.22%     93.76% |       28493      6.24%    100.00%
system.ruby.GPUL1Cache_Controller.Data::total       456436                      
system.ruby.GPUL1Cache_Controller.Replacement |        8718      6.43%      6.43% |        8517      6.29%     12.72% |        8730      6.44%     19.16% |        8243      6.08%     25.25% |        8439      6.23%     31.47% |        8227      6.07%     37.55% |        8740      6.45%     44.00% |        8320      6.14%     50.14% |        8373      6.18%     56.32% |        8255      6.09%     62.41% |        8595      6.34%     68.75% |        8576      6.33%     75.08% |        8475      6.25%     81.34% |        8505      6.28%     87.61% |        8392      6.19%     93.81% |        8391      6.19%    100.00%
system.ruby.GPUL1Cache_Controller.Replacement::total       135496                      
system.ruby.GPUL1Cache_Controller.Write_Ack |       90704      6.24%      6.24% |       90740      6.24%     12.48% |       90878      6.25%     18.73% |       90718      6.24%     24.97% |       90938      6.26%     31.23% |       91096      6.27%     37.49% |       90983      6.26%     43.75% |       91149      6.27%     50.02% |       90917      6.25%     56.28% |       90590      6.23%     62.51% |       91007      6.26%     68.77% |       90701      6.24%     75.01% |       90781      6.24%     81.25% |       90877      6.25%     87.50% |       90655      6.24%     93.74% |       91040      6.26%    100.00%
system.ruby.GPUL1Cache_Controller.Write_Ack::total      1453774                      
system.ruby.GPUL1Cache_Controller.I.Load |       28677      6.29%      6.29% |       28511      6.25%     12.54% |       28733      6.30%     18.84% |       28360      6.22%     25.06% |       28457      6.24%     31.31% |       28230      6.19%     37.50% |       28718      6.30%     43.80% |       28338      6.22%     50.01% |       28455      6.24%     56.25% |       28400      6.23%     62.48% |       28586      6.27%     68.75% |       28586      6.27%     75.02% |       28600      6.27%     81.29% |       28496      6.25%     87.54% |       28346      6.22%     93.76% |       28463      6.24%    100.00%
system.ruby.GPUL1Cache_Controller.I.Load::total       455956                      
system.ruby.GPUL1Cache_Controller.I.Ifetch |          30      6.25%      6.25% |          30      6.25%     12.50% |          30      6.25%     18.75% |          30      6.25%     25.00% |          30      6.25%     31.25% |          30      6.25%     37.50% |          30      6.25%     43.75% |          30      6.25%     50.00% |          30      6.25%     56.25% |          30      6.25%     62.50% |          30      6.25%     68.75% |          30      6.25%     75.00% |          30      6.25%     81.25% |          30      6.25%     87.50% |          30      6.25%     93.75% |          30      6.25%    100.00%
system.ruby.GPUL1Cache_Controller.I.Ifetch::total          480                      
system.ruby.GPUL1Cache_Controller.I.Store |       71215      6.24%      6.24% |       71216      6.24%     12.49% |       71337      6.25%     18.74% |       71057      6.23%     24.97% |       71386      6.26%     31.23% |       71551      6.27%     37.50% |       71469      6.27%     43.76% |       71601      6.28%     50.04% |       71306      6.25%     56.29% |       70911      6.22%     62.51% |       71497      6.27%     68.77% |       71158      6.24%     75.01% |       71098      6.23%     81.24% |       71352      6.25%     87.50% |       71163      6.24%     93.74% |       71438      6.26%    100.00%
system.ruby.GPUL1Cache_Controller.I.Store::total      1140755                      
system.ruby.GPUL1Cache_Controller.V.Load |      426171      6.27%      6.27% |      420590      6.19%     12.46% |      429746      6.32%     18.78% |      412392      6.07%     24.85% |      414025      6.09%     30.94% |      421870      6.21%     37.14% |      429735      6.32%     43.47% |      430613      6.34%     49.80% |      431672      6.35%     56.15% |      421288      6.20%     62.35% |      426503      6.27%     68.62% |      420218      6.18%     74.81% |      422303      6.21%     81.02% |      431318      6.35%     87.37% |      431690      6.35%     93.72% |      427132      6.28%    100.00%
system.ruby.GPUL1Cache_Controller.V.Load::total      6797266                      
system.ruby.GPUL1Cache_Controller.V.Store |       19489      6.23%      6.23% |       19524      6.24%     12.46% |       19541      6.24%     18.71% |       19661      6.28%     24.99% |       19552      6.25%     31.23% |       19545      6.24%     37.48% |       19514      6.23%     43.71% |       19548      6.24%     49.96% |       19611      6.27%     56.22% |       19679      6.29%     62.51% |       19510      6.23%     68.74% |       19543      6.24%     74.98% |       19683      6.29%     81.27% |       19525      6.24%     87.51% |       19492      6.23%     93.74% |       19602      6.26%    100.00%
system.ruby.GPUL1Cache_Controller.V.Store::total       313019                      
system.ruby.GPUL1Cache_Controller.V.Replacement |        8718      6.43%      6.43% |        8517      6.29%     12.72% |        8730      6.44%     19.16% |        8243      6.08%     25.25% |        8439      6.23%     31.47% |        8227      6.07%     37.55% |        8740      6.45%     44.00% |        8320      6.14%     50.14% |        8373      6.18%     56.32% |        8255      6.09%     62.41% |        8595      6.34%     68.75% |        8576      6.33%     75.08% |        8475      6.25%     81.34% |        8505      6.28%     87.61% |        8392      6.19%     93.81% |        8391      6.19%    100.00%
system.ruby.GPUL1Cache_Controller.V.Replacement::total       135496                      
system.ruby.GPUL1Cache_Controller.IA.Write_Ack |       90704      6.24%      6.24% |       90740      6.24%     12.48% |       90878      6.25%     18.73% |       90718      6.24%     24.97% |       90938      6.26%     31.23% |       91096      6.27%     37.49% |       90983      6.26%     43.75% |       91149      6.27%     50.02% |       90917      6.25%     56.28% |       90590      6.23%     62.51% |       91007      6.26%     68.77% |       90701      6.24%     75.01% |       90781      6.24%     81.25% |       90877      6.25%     87.50% |       90655      6.24%     93.74% |       91040      6.26%    100.00%
system.ruby.GPUL1Cache_Controller.IA.Write_Ack::total      1453774                      
system.ruby.GPUL1Cache_Controller.IV.Data |       28707      6.29%      6.29% |       28541      6.25%     12.54% |       28763      6.30%     18.84% |       28390      6.22%     25.06% |       28487      6.24%     31.31% |       28260      6.19%     37.50% |       28748      6.30%     43.79% |       28368      6.22%     50.01% |       28485      6.24%     56.25% |       28430      6.23%     62.48% |       28616      6.27%     68.75% |       28616      6.27%     75.02% |       28630      6.27%     81.29% |       28526      6.25%     87.54% |       28376      6.22%     93.76% |       28493      6.24%    100.00%
system.ruby.GPUL1Cache_Controller.IV.Data::total       456436                      
system.ruby.GPUL2Cache_Controller.Get          702527      0.00%      0.00%
system.ruby.GPUL2Cache_Controller.Store       2242838      0.00%      0.00%
system.ruby.GPUL2Cache_Controller.Replacement        26623      0.00%      0.00%
system.ruby.GPUL2Cache_Controller.Other_GETX        60828      0.00%      0.00%
system.ruby.GPUL2Cache_Controller.Other_GETS        54530      0.00%      0.00%
system.ruby.GPUL2Cache_Controller.Ack           69620      0.00%      0.00%
system.ruby.GPUL2Cache_Controller.Shared_Data            8      0.00%      0.00%
system.ruby.GPUL2Cache_Controller.Exclusive_Data        34807      0.00%      0.00%
system.ruby.GPUL2Cache_Controller.Writeback_Ack        23070      0.00%      0.00%
system.ruby.GPUL2Cache_Controller.All_acks            8      0.00%      0.00%
system.ruby.GPUL2Cache_Controller.All_acks_no_sharers        34807      0.00%      0.00%
system.ruby.GPUL2Cache_Controller.I.Get         16658      0.00%      0.00%
system.ruby.GPUL2Cache_Controller.I.Store        18157      0.00%      0.00%
system.ruby.GPUL2Cache_Controller.I.Replacement         3546      0.00%      0.00%
system.ruby.GPUL2Cache_Controller.I.Other_GETX        60826      0.00%      0.00%
system.ruby.GPUL2Cache_Controller.I.Other_GETS        46702      0.00%      0.00%
system.ruby.GPUL2Cache_Controller.S.Get            92      0.00%      0.00%
system.ruby.GPUL2Cache_Controller.S.Replacement            7      0.00%      0.00%
system.ruby.GPUL2Cache_Controller.O.Other_GETX            2      0.00%      0.00%
system.ruby.GPUL2Cache_Controller.M.Get         38120      0.00%      0.00%
system.ruby.GPUL2Cache_Controller.M.Store        12308      0.00%      0.00%
system.ruby.GPUL2Cache_Controller.M.Replacement         2279      0.00%      0.00%
system.ruby.GPUL2Cache_Controller.M.Other_GETS            2      0.00%      0.00%
system.ruby.GPUL2Cache_Controller.MM.Get       395991      0.00%      0.00%
system.ruby.GPUL2Cache_Controller.MM.Store      1417385      0.00%      0.00%
system.ruby.GPUL2Cache_Controller.MM.Replacement        20791      0.00%      0.00%
system.ruby.GPUL2Cache_Controller.MM.Other_GETS         7826      0.00%      0.00%
system.ruby.GPUL2Cache_Controller.IM.Store       789055      0.00%      0.00%
system.ruby.GPUL2Cache_Controller.IM.Ack        34119      0.00%      0.00%
system.ruby.GPUL2Cache_Controller.IM.Exclusive_Data        18157      0.00%      0.00%
system.ruby.GPUL2Cache_Controller.IS.Get       246091      0.00%      0.00%
system.ruby.GPUL2Cache_Controller.IS.Ack        32211      0.00%      0.00%
system.ruby.GPUL2Cache_Controller.IS.Shared_Data            8      0.00%      0.00%
system.ruby.GPUL2Cache_Controller.IS.Exclusive_Data        16650      0.00%      0.00%
system.ruby.GPUL2Cache_Controller.SS.Get           28      0.00%      0.00%
system.ruby.GPUL2Cache_Controller.SS.Ack            2      0.00%      0.00%
system.ruby.GPUL2Cache_Controller.SS.All_acks            8      0.00%      0.00%
system.ruby.GPUL2Cache_Controller.MI.Store            9      0.00%      0.00%
system.ruby.GPUL2Cache_Controller.MI.Writeback_Ack        23070      0.00%      0.00%
system.ruby.GPUL2Cache_Controller.M_W.Get         5547      0.00%      0.00%
system.ruby.GPUL2Cache_Controller.M_W.Ack         1093      0.00%      0.00%
system.ruby.GPUL2Cache_Controller.M_W.All_acks_no_sharers        16650      0.00%      0.00%
system.ruby.GPUL2Cache_Controller.MM_W.Store         5924      0.00%      0.00%
system.ruby.GPUL2Cache_Controller.MM_W.Ack         2195      0.00%      0.00%
system.ruby.GPUL2Cache_Controller.MM_W.All_acks_no_sharers        18157      0.00%      0.00%

---------- End Simulation Statistics   ----------
he_Controller.Other_GETS        14885      0.00%      0.00%
system.ruby.GPUL2Cache_Controller.Ack           12038      0.00%      0.00%
system.ruby.GPUL2Cache_Controller.Shared_Data           11      0.00%      0.00%
system.ruby.GPUL2Cache_Controller.Exclusive_Data         6015      0.00%      0.00%
system.ruby.GPUL2Cache_Controller.All_acks           11      0.00%      0.00%
system.ruby.GPUL2Cache_Controller.All_acks_no_sharers         6015      0.00%      0.00%
system.ruby.GPUL2Cache_Controller.I.Get          2712      0.00%      0.00%
system.ruby.GPUL2Cache_Controller.I.Store         3314      0.00%      0.00%
system.ruby.GPUL2Cache_Controller.I.Other_GETX        15318      0.00%      0.00%
system.ruby.GPUL2Cache_Controller.I.Other_GETS        13009      0.00%      0.00%
system.ruby.GPUL2Cache_Controller.S.Get           132      0.00%      0.00%
system.ruby.GPUL2Cache_Controller.O.Other_GETX            2      0.00%      0.00%
system.ruby.GPUL2Cache_Controller.M.Get          9409      0.00%      0.00%
system.ruby.GPUL2Cache_Controller.M.Store         2048      0.00%      0.00%
system.ruby.GPUL2Cache_Controller.M.Other_GETX            1      0.00%      0.00%
system.ruby.GPUL2Cache_Controller.M.Other_GETS            2      0.00%      0.00%
system.ruby.GPUL2Cache_Controller.MM.Get        88961      0.00%      0.00%
system.ruby.GPUL2Cache_Controller.MM.Store       339041      0.00%      0.00%
system.ruby.GPUL2Cache_Controller.MM.Other_GETS         1874      0.00%      0.00%
system.ruby.GPUL2Cache_Controller.IM.Store        21576      0.00%      0.00%
system.ruby.GPUL2Cache_Controller.IM.Ack         6009      0.00%      0.00%
system.ruby.GPUL2Cache_Controller.IM.Exclusive_Data         3314      0.00%      0.00%
system.ruby.GPUL2Cache_Controller.IS.Get         3538      0.00%      0.00%
system.ruby.GPUL2Cache_Controller.IS.Ack         5282      0.00%      0.00%
system.ruby.GPUL2Cache_Controller.IS.Shared_Data           11      0.00%      0.00%
system.ruby.GPUL2Cache_Controller.IS.Exclusive_Data         2701      0.00%      0.00%
system.ruby.GPUL2Cache_Controller.SS.Get           33      0.00%      0.00%
system.ruby.GPUL2Cache_Controller.SS.Ack            3      0.00%      0.00%
system.ruby.GPUL2Cache_Controller.SS.All_acks           11      0.00%      0.00%
system.ruby.GPUL2Cache_Controller.M_W.Get         1264      0.00%      0.00%
system.ruby.GPUL2Cache_Controller.M_W.Ack          125      0.00%      0.00%
system.ruby.GPUL2Cache_Controller.M_W.All_acks_no_sharers         2701      0.00%      0.00%
system.ruby.GPUL2Cache_Controller.MM_W.Store         5763      0.00%      0.00%
system.ruby.GPUL2Cache_Controller.MM_W.Ack          619      0.00%      0.00%
system.ruby.GPUL2Cache_Controller.MM_W.All_acks_no_sharers         3314      0.00%      0.00%

---------- End Simulation Statistics   ----------
