warn: system.ruby.network adopting orphan SimObject param 'int_links'
warn: system.ruby.network adopting orphan SimObject param 'ext_links'
warn: DRAM device capacity (8192 Mbytes) does not match the address range assigned (2048 Mbytes)
warn: Sockets disabled, not accepting gdb connections
warn: readlink may yield unexpected results if multiple binaries are used
warn: ignoring syscall access(4996065, ...)
Usage: /tmp2/grasslab/benchmarks/Ray_Tracing/rtcore
Usage: /tmp2/grasslab/benchmarks/Ray_Tracing/rtcore <use CPU/GPU (0/1)> <workgroup size (power of 2, 0=default)> <kernel> <width> <height> <scene>
Usage: /tmp2/grasslab/benchmarks/Ray_Tracing/rtcore <use CPU/GPU (0/1)> <width> <height>
OpenCL Platform 0: GPGPU-Sim.org
OpenCL Device 0: Type = TYPE_GPU
OpenCL Device 0: Name = GPGPU-Sim
OpenCL Device 0: Compute units = 16
warn: Returning threads per multiprocessor from compute capability 2.x
OpenCL Device 0: Max. work group size = 1536
[Selected] OpenCL Device 0: Type = TYPE_GPU
[Selected] OpenCL Device 0: Name = GPGPU-Sim
[Selected] OpenCL Device 0: Compute units = 16
warn: Returning threads per multiprocessor from compute capability 2.x
[Selected] OpenCL Device 0: Max. work group size = 1536
Reading file 'RayTracing_Kernel.cl' (size 12217 bytes)
Setting of real/effective user Id to 0/0 failed
FATAL: Module fglrx not found.
Error! Fail to load fglrx kernel module! Maybe you can switch to root user to load kernel module directly
gem5.opt: build/X86_VI_hammer_GPU/gpgpu-sim/cuda-sim/ptx_ir.cc:1204: ptx_instruction::ptx_instruction(int, const symbol*, int, int, symbol*, const std::list<operand_info>&, const operand_info&, const std::list<int>&, const std::list<int>&, memory_space_t, const char*, unsigned int, const char*, const core_config*): Assertion `0' failed.
Program aborted at cycle 332581500
Aborted
