
---------- Begin Simulation Statistics ----------
sim_seconds                                  0.341704                       # Number of seconds simulated
sim_ticks                                341703516000                       # Number of ticks simulated
final_tick                               341703516000                       # Number of ticks from beginning of simulation (restored from checkpoints and never reset)
sim_freq                                 1000000000000                       # Frequency of simulated ticks
host_inst_rate                                   7047                       # Simulator instruction rate (inst/s)
host_op_rate                                    13163                       # Simulator op (including micro ops) rate (op/s)
host_tick_rate                               13432565                       # Simulator tick rate (ticks/s)
host_mem_usage                                4918616                       # Number of bytes of host memory used
host_seconds                                 25438.44                       # Real time elapsed on the host
sim_insts                                   179257378                       # Number of instructions simulated
sim_ops                                     334846529                       # Number of ops (including micro ops) simulated
system.voltage_domain.voltage                       1                       # Voltage in Volts
system.clk_domain.clock                          1000                       # Clock period in ticks
system.mem_ctrls.bytes_read::ruby.dir_cntrl0     34173824                       # Number of bytes read from this memory
system.mem_ctrls.bytes_read::total           34173824                       # Number of bytes read from this memory
system.mem_ctrls.bytes_written::ruby.dir_cntrl0     41942784                       # Number of bytes written to this memory
system.mem_ctrls.bytes_written::total        41942784                       # Number of bytes written to this memory
system.mem_ctrls.num_reads::ruby.dir_cntrl0       266983                       # Number of read requests responded to by this memory
system.mem_ctrls.num_reads::total              266983                       # Number of read requests responded to by this memory
system.mem_ctrls.num_writes::ruby.dir_cntrl0       327678                       # Number of write requests responded to by this memory
system.mem_ctrls.num_writes::total             327678                       # Number of write requests responded to by this memory
system.mem_ctrls.bw_read::ruby.dir_cntrl0    100010162                       # Total read bandwidth from this memory (bytes/s)
system.mem_ctrls.bw_read::total             100010162                       # Total read bandwidth from this memory (bytes/s)
system.mem_ctrls.bw_write::ruby.dir_cntrl0    122746129                       # Write bandwidth from this memory (bytes/s)
system.mem_ctrls.bw_write::total            122746129                       # Write bandwidth from this memory (bytes/s)
system.mem_ctrls.bw_total::ruby.dir_cntrl0    222756291                       # Total bandwidth to/from this memory (bytes/s)
system.mem_ctrls.bw_total::total            222756291                       # Total bandwidth to/from this memory (bytes/s)
system.mem_ctrls.readReqs                      266983                       # Number of read requests accepted
system.mem_ctrls.writeReqs                     327678                       # Number of write requests accepted
system.mem_ctrls.readBursts                    533966                       # Number of DRAM read bursts, including those serviced by the write queue
system.mem_ctrls.writeBursts                   655356                       # Number of DRAM write bursts, including those merged in the write queue
system.mem_ctrls.bytesReadDRAM               34144000                       # Total number of bytes read from DRAM
system.mem_ctrls.bytesReadWrQ                   29824                       # Total number of bytes read from write queue
system.mem_ctrls.bytesWritten                41940928                       # Total number of bytes written to DRAM
system.mem_ctrls.bytesReadSys                34173824                       # Total read bytes from the system interface side
system.mem_ctrls.bytesWrittenSys             41942784                       # Total written bytes from the system interface side
system.mem_ctrls.servicedByWrQ                    466                       # Number of DRAM read bursts serviced by the write queue
system.mem_ctrls.mergedWrBursts                     4                       # Number of DRAM write bursts merged with an existing one
system.mem_ctrls.neitherReadNorWriteReqs            0                       # Number of requests that are neither read nor write
system.mem_ctrls.perBankRdBursts::0             33818                       # Per bank write bursts
system.mem_ctrls.perBankRdBursts::1             34040                       # Per bank write bursts
system.mem_ctrls.perBankRdBursts::2             33446                       # Per bank write bursts
system.mem_ctrls.perBankRdBursts::3             33508                       # Per bank write bursts
system.mem_ctrls.perBankRdBursts::4             33728                       # Per bank write bursts
system.mem_ctrls.perBankRdBursts::5             33299                       # Per bank write bursts
system.mem_ctrls.perBankRdBursts::6             32738                       # Per bank write bursts
system.mem_ctrls.perBankRdBursts::7             32617                       # Per bank write bursts
system.mem_ctrls.perBankRdBursts::8             32812                       # Per bank write bursts
system.mem_ctrls.perBankRdBursts::9             32802                       # Per bank write bursts
system.mem_ctrls.perBankRdBursts::10            33004                       # Per bank write bursts
system.mem_ctrls.perBankRdBursts::11            33179                       # Per bank write bursts
system.mem_ctrls.perBankRdBursts::12            33746                       # Per bank write bursts
system.mem_ctrls.perBankRdBursts::13            33288                       # Per bank write bursts
system.mem_ctrls.perBankRdBursts::14            33698                       # Per bank write bursts
system.mem_ctrls.perBankRdBursts::15            33777                       # Per bank write bursts
system.mem_ctrls.perBankWrBursts::0             41302                       # Per bank write bursts
system.mem_ctrls.perBankWrBursts::1             41440                       # Per bank write bursts
system.mem_ctrls.perBankWrBursts::2             41184                       # Per bank write bursts
system.mem_ctrls.perBankWrBursts::3             41072                       # Per bank write bursts
system.mem_ctrls.perBankWrBursts::4             41292                       # Per bank write bursts
system.mem_ctrls.perBankWrBursts::5             40742                       # Per bank write bursts
system.mem_ctrls.perBankWrBursts::6             40017                       # Per bank write bursts
system.mem_ctrls.perBankWrBursts::7             40156                       # Per bank write bursts
system.mem_ctrls.perBankWrBursts::8             40396                       # Per bank write bursts
system.mem_ctrls.perBankWrBursts::9             40378                       # Per bank write bursts
system.mem_ctrls.perBankWrBursts::10            40538                       # Per bank write bursts
system.mem_ctrls.perBankWrBursts::11            41072                       # Per bank write bursts
system.mem_ctrls.perBankWrBursts::12            41876                       # Per bank write bursts
system.mem_ctrls.perBankWrBursts::13            40948                       # Per bank write bursts
system.mem_ctrls.perBankWrBursts::14            41368                       # Per bank write bursts
system.mem_ctrls.perBankWrBursts::15            41546                       # Per bank write bursts
system.mem_ctrls.numRdRetry                    199102                       # Number of times read queue was full causing retry
system.mem_ctrls.numWrRetry                    244253                       # Number of times write queue was full causing retry
system.mem_ctrls.totGap                  341703428500                       # Total gap between requests
system.mem_ctrls.readPktSize::0                     0                       # Read request sizes (log2)
system.mem_ctrls.readPktSize::1                     0                       # Read request sizes (log2)
system.mem_ctrls.readPktSize::2                     0                       # Read request sizes (log2)
system.mem_ctrls.readPktSize::3                     0                       # Read request sizes (log2)
system.mem_ctrls.readPktSize::4                     0                       # Read request sizes (log2)
system.mem_ctrls.readPktSize::5                     0                       # Read request sizes (log2)
system.mem_ctrls.readPktSize::6                533966                       # Read request sizes (log2)
system.mem_ctrls.writePktSize::0                    0                       # Write request sizes (log2)
system.mem_ctrls.writePktSize::1                    0                       # Write request sizes (log2)
system.mem_ctrls.writePktSize::2                    0                       # Write request sizes (log2)
system.mem_ctrls.writePktSize::3                    0                       # Write request sizes (log2)
system.mem_ctrls.writePktSize::4                    0                       # Write request sizes (log2)
system.mem_ctrls.writePktSize::5                    0                       # Write request sizes (log2)
system.mem_ctrls.writePktSize::6               655356                       # Write request sizes (log2)
system.mem_ctrls.rdQLenPdf::0                  137202                       # What read queue length does an incoming req see
system.mem_ctrls.rdQLenPdf::1                  137499                       # What read queue length does an incoming req see
system.mem_ctrls.rdQLenPdf::2                    3636                       # What read queue length does an incoming req see
system.mem_ctrls.rdQLenPdf::3                    3697                       # What read queue length does an incoming req see
system.mem_ctrls.rdQLenPdf::4                    1618                       # What read queue length does an incoming req see
system.mem_ctrls.rdQLenPdf::5                    1544                       # What read queue length does an incoming req see
system.mem_ctrls.rdQLenPdf::6                    1110                       # What read queue length does an incoming req see
system.mem_ctrls.rdQLenPdf::7                    1097                       # What read queue length does an incoming req see
system.mem_ctrls.rdQLenPdf::8                     962                       # What read queue length does an incoming req see
system.mem_ctrls.rdQLenPdf::9                    1031                       # What read queue length does an incoming req see
system.mem_ctrls.rdQLenPdf::10                    995                       # What read queue length does an incoming req see
system.mem_ctrls.rdQLenPdf::11                    987                       # What read queue length does an incoming req see
system.mem_ctrls.rdQLenPdf::12                    950                       # What read queue length does an incoming req see
system.mem_ctrls.rdQLenPdf::13                    943                       # What read queue length does an incoming req see
system.mem_ctrls.rdQLenPdf::14                    845                       # What read queue length does an incoming req see
system.mem_ctrls.rdQLenPdf::15                    836                       # What read queue length does an incoming req see
system.mem_ctrls.rdQLenPdf::16                    821                       # What read queue length does an incoming req see
system.mem_ctrls.rdQLenPdf::17                    841                       # What read queue length does an incoming req see
system.mem_ctrls.rdQLenPdf::18                    796                       # What read queue length does an incoming req see
system.mem_ctrls.rdQLenPdf::19                    836                       # What read queue length does an incoming req see
system.mem_ctrls.rdQLenPdf::20                    857                       # What read queue length does an incoming req see
system.mem_ctrls.rdQLenPdf::21                    868                       # What read queue length does an incoming req see
system.mem_ctrls.rdQLenPdf::22                    966                       # What read queue length does an incoming req see
system.mem_ctrls.rdQLenPdf::23                    978                       # What read queue length does an incoming req see
system.mem_ctrls.rdQLenPdf::24                   1108                       # What read queue length does an incoming req see
system.mem_ctrls.rdQLenPdf::25                   1177                       # What read queue length does an incoming req see
system.mem_ctrls.rdQLenPdf::26                   1705                       # What read queue length does an incoming req see
system.mem_ctrls.rdQLenPdf::27                   1941                       # What read queue length does an incoming req see
system.mem_ctrls.rdQLenPdf::28                   3790                       # What read queue length does an incoming req see
system.mem_ctrls.rdQLenPdf::29                   4384                       # What read queue length does an incoming req see
system.mem_ctrls.rdQLenPdf::30                 109392                       # What read queue length does an incoming req see
system.mem_ctrls.rdQLenPdf::31                 108088                       # What read queue length does an incoming req see
system.mem_ctrls.wrQLenPdf::0                       1                       # What write queue length does an incoming req see
system.mem_ctrls.wrQLenPdf::1                       1                       # What write queue length does an incoming req see
system.mem_ctrls.wrQLenPdf::2                       1                       # What write queue length does an incoming req see
system.mem_ctrls.wrQLenPdf::3                       1                       # What write queue length does an incoming req see
system.mem_ctrls.wrQLenPdf::4                       1                       # What write queue length does an incoming req see
system.mem_ctrls.wrQLenPdf::5                       1                       # What write queue length does an incoming req see
system.mem_ctrls.wrQLenPdf::6                       1                       # What write queue length does an incoming req see
system.mem_ctrls.wrQLenPdf::7                       1                       # What write queue length does an incoming req see
system.mem_ctrls.wrQLenPdf::8                       1                       # What write queue length does an incoming req see
system.mem_ctrls.wrQLenPdf::9                       1                       # What write queue length does an incoming req see
system.mem_ctrls.wrQLenPdf::10                      1                       # What write queue length does an incoming req see
system.mem_ctrls.wrQLenPdf::11                      1                       # What write queue length does an incoming req see
system.mem_ctrls.wrQLenPdf::12                      1                       # What write queue length does an incoming req see
system.mem_ctrls.wrQLenPdf::13                      1                       # What write queue length does an incoming req see
system.mem_ctrls.wrQLenPdf::14                      1                       # What write queue length does an incoming req see
system.mem_ctrls.wrQLenPdf::15                   6190                       # What write queue length does an incoming req see
system.mem_ctrls.wrQLenPdf::16                   6561                       # What write queue length does an incoming req see
system.mem_ctrls.wrQLenPdf::17                   6988                       # What write queue length does an incoming req see
system.mem_ctrls.wrQLenPdf::18                   7137                       # What write queue length does an incoming req see
system.mem_ctrls.wrQLenPdf::19                   7415                       # What write queue length does an incoming req see
system.mem_ctrls.wrQLenPdf::20                   7450                       # What write queue length does an incoming req see
system.mem_ctrls.wrQLenPdf::21                   7475                       # What write queue length does an incoming req see
system.mem_ctrls.wrQLenPdf::22                   7456                       # What write queue length does an incoming req see
system.mem_ctrls.wrQLenPdf::23                   7486                       # What write queue length does an incoming req see
system.mem_ctrls.wrQLenPdf::24                   7483                       # What write queue length does an incoming req see
system.mem_ctrls.wrQLenPdf::25                   7509                       # What write queue length does an incoming req see
system.mem_ctrls.wrQLenPdf::26                   7531                       # What write queue length does an incoming req see
system.mem_ctrls.wrQLenPdf::27                   7535                       # What write queue length does an incoming req see
system.mem_ctrls.wrQLenPdf::28                   7525                       # What write queue length does an incoming req see
system.mem_ctrls.wrQLenPdf::29                   7547                       # What write queue length does an incoming req see
system.mem_ctrls.wrQLenPdf::30                   7861                       # What write queue length does an incoming req see
system.mem_ctrls.wrQLenPdf::31                   7853                       # What write queue length does an incoming req see
system.mem_ctrls.wrQLenPdf::32                   7535                       # What write queue length does an incoming req see
system.mem_ctrls.wrQLenPdf::33                    717                       # What write queue length does an incoming req see
system.mem_ctrls.wrQLenPdf::34                    205                       # What write queue length does an incoming req see
system.mem_ctrls.wrQLenPdf::35                    169                       # What write queue length does an incoming req see
system.mem_ctrls.wrQLenPdf::36                    162                       # What write queue length does an incoming req see
system.mem_ctrls.wrQLenPdf::37                    156                       # What write queue length does an incoming req see
system.mem_ctrls.wrQLenPdf::38                    155                       # What write queue length does an incoming req see
system.mem_ctrls.wrQLenPdf::39                   1597                       # What write queue length does an incoming req see
system.mem_ctrls.wrQLenPdf::40                   1600                       # What write queue length does an incoming req see
system.mem_ctrls.wrQLenPdf::41                   3431                       # What write queue length does an incoming req see
system.mem_ctrls.wrQLenPdf::42                   3433                       # What write queue length does an incoming req see
system.mem_ctrls.wrQLenPdf::43                   5507                       # What write queue length does an incoming req see
system.mem_ctrls.wrQLenPdf::44                   5522                       # What write queue length does an incoming req see
system.mem_ctrls.wrQLenPdf::45                   7534                       # What write queue length does an incoming req see
system.mem_ctrls.wrQLenPdf::46                   7537                       # What write queue length does an incoming req see
system.mem_ctrls.wrQLenPdf::47                   9488                       # What write queue length does an incoming req see
system.mem_ctrls.wrQLenPdf::48                   9493                       # What write queue length does an incoming req see
system.mem_ctrls.wrQLenPdf::49                  11283                       # What write queue length does an incoming req see
system.mem_ctrls.wrQLenPdf::50                  11328                       # What write queue length does an incoming req see
system.mem_ctrls.wrQLenPdf::51                  12733                       # What write queue length does an incoming req see
system.mem_ctrls.wrQLenPdf::52                  12841                       # What write queue length does an incoming req see
system.mem_ctrls.wrQLenPdf::53                  15129                       # What write queue length does an incoming req see
system.mem_ctrls.wrQLenPdf::54                  18768                       # What write queue length does an incoming req see
system.mem_ctrls.wrQLenPdf::55                  16635                       # What write queue length does an incoming req see
system.mem_ctrls.wrQLenPdf::56                  17842                       # What write queue length does an incoming req see
system.mem_ctrls.wrQLenPdf::57                  17089                       # What write queue length does an incoming req see
system.mem_ctrls.wrQLenPdf::58                  16289                       # What write queue length does an incoming req see
system.mem_ctrls.wrQLenPdf::59                  17432                       # What write queue length does an incoming req see
system.mem_ctrls.wrQLenPdf::60                  16285                       # What write queue length does an incoming req see
system.mem_ctrls.wrQLenPdf::61                  16447                       # What write queue length does an incoming req see
system.mem_ctrls.wrQLenPdf::62                 139669                       # What write queue length does an incoming req see
system.mem_ctrls.wrQLenPdf::63                 126324                       # What write queue length does an incoming req see
system.mem_ctrls.bytesPerActivate::samples       117661                       # Bytes accessed per row activation
system.mem_ctrls.bytesPerActivate::mean    646.626767                       # Bytes accessed per row activation
system.mem_ctrls.bytesPerActivate::gmean   504.150268                       # Bytes accessed per row activation
system.mem_ctrls.bytesPerActivate::stdev   370.811026                       # Bytes accessed per row activation
system.mem_ctrls.bytesPerActivate::0-127         1613      1.37%      1.37% # Bytes accessed per row activation
system.mem_ctrls.bytesPerActivate::128-255        17189     14.61%     15.98% # Bytes accessed per row activation
system.mem_ctrls.bytesPerActivate::256-383        14091     11.98%     27.96% # Bytes accessed per row activation
system.mem_ctrls.bytesPerActivate::384-511        18558     15.77%     43.73% # Bytes accessed per row activation
system.mem_ctrls.bytesPerActivate::512-639         5164      4.39%     48.12% # Bytes accessed per row activation
system.mem_ctrls.bytesPerActivate::640-767         3164      2.69%     50.81% # Bytes accessed per row activation
system.mem_ctrls.bytesPerActivate::768-895         3191      2.71%     53.52% # Bytes accessed per row activation
system.mem_ctrls.bytesPerActivate::896-1023         3125      2.66%     56.17% # Bytes accessed per row activation
system.mem_ctrls.bytesPerActivate::1024-1151        51566     43.83%    100.00% # Bytes accessed per row activation
system.mem_ctrls.bytesPerActivate::total       117661                       # Bytes accessed per row activation
system.mem_ctrls.rdPerTurnAround::samples        35126                       # Reads before turning the bus around for writes
system.mem_ctrls.rdPerTurnAround::mean      15.166031                       # Reads before turning the bus around for writes
system.mem_ctrls.rdPerTurnAround::gmean      5.226951                       # Reads before turning the bus around for writes
system.mem_ctrls.rdPerTurnAround::stdev    211.523843                       # Reads before turning the bus around for writes
system.mem_ctrls.rdPerTurnAround::0-1023        35110     99.95%     99.95% # Reads before turning the bus around for writes
system.mem_ctrls.rdPerTurnAround::1024-2047            8      0.02%     99.98% # Reads before turning the bus around for writes
system.mem_ctrls.rdPerTurnAround::2048-3071            3      0.01%     99.99% # Reads before turning the bus around for writes
system.mem_ctrls.rdPerTurnAround::11264-12287            1      0.00%     99.99% # Reads before turning the bus around for writes
system.mem_ctrls.rdPerTurnAround::12288-13311            1      0.00%     99.99% # Reads before turning the bus around for writes
system.mem_ctrls.rdPerTurnAround::14336-15359            1      0.00%     99.99% # Reads before turning the bus around for writes
system.mem_ctrls.rdPerTurnAround::15360-16383            1      0.00%    100.00% # Reads before turning the bus around for writes
system.mem_ctrls.rdPerTurnAround::26624-27647            1      0.00%    100.00% # Reads before turning the bus around for writes
system.mem_ctrls.rdPerTurnAround::total         35126                       # Reads before turning the bus around for writes
system.mem_ctrls.wrPerTurnAround::samples        35126                       # Writes before turning the bus around for reads
system.mem_ctrls.wrPerTurnAround::mean      18.656465                       # Writes before turning the bus around for reads
system.mem_ctrls.wrPerTurnAround::gmean     16.487228                       # Writes before turning the bus around for reads
system.mem_ctrls.wrPerTurnAround::stdev    114.880787                       # Writes before turning the bus around for reads
system.mem_ctrls.wrPerTurnAround::0-255         35097     99.92%     99.92% # Writes before turning the bus around for reads
system.mem_ctrls.wrPerTurnAround::256-511            7      0.02%     99.94% # Writes before turning the bus around for reads
system.mem_ctrls.wrPerTurnAround::512-767            9      0.03%     99.96% # Writes before turning the bus around for reads
system.mem_ctrls.wrPerTurnAround::1024-1279            2      0.01%     99.97% # Writes before turning the bus around for reads
system.mem_ctrls.wrPerTurnAround::1280-1535            1      0.00%     99.97% # Writes before turning the bus around for reads
system.mem_ctrls.wrPerTurnAround::3072-3327            1      0.00%     99.97% # Writes before turning the bus around for reads
system.mem_ctrls.wrPerTurnAround::3840-4095            1      0.00%     99.98% # Writes before turning the bus around for reads
system.mem_ctrls.wrPerTurnAround::4096-4351            1      0.00%     99.98% # Writes before turning the bus around for reads
system.mem_ctrls.wrPerTurnAround::4608-4863            1      0.00%     99.98% # Writes before turning the bus around for reads
system.mem_ctrls.wrPerTurnAround::5376-5631            3      0.01%     99.99% # Writes before turning the bus around for reads
system.mem_ctrls.wrPerTurnAround::8448-8703            1      0.00%     99.99% # Writes before turning the bus around for reads
system.mem_ctrls.wrPerTurnAround::10496-10751            2      0.01%    100.00% # Writes before turning the bus around for reads
system.mem_ctrls.wrPerTurnAround::total         35126                       # Writes before turning the bus around for reads
system.mem_ctrls.totQLat                 131490368166                       # Total ticks spent queuing
system.mem_ctrls.totMemAccLat            141493493166                       # Total ticks spent from burst creation until serviced by the DRAM
system.mem_ctrls.totBusLat                 2667500000                       # Total ticks spent in databus transfers
system.mem_ctrls.avgQLat                    246467.42                       # Average queueing delay per DRAM burst
system.mem_ctrls.avgBusLat                    5000.00                       # Average bus latency per DRAM burst
system.mem_ctrls.avgMemAccLat               265217.42                       # Average memory access latency per DRAM burst
system.mem_ctrls.avgRdBW                        99.92                       # Average DRAM read bandwidth in MiByte/s
system.mem_ctrls.avgWrBW                       122.74                       # Average achieved write bandwidth in MiByte/s
system.mem_ctrls.avgRdBWSys                    100.01                       # Average system read bandwidth in MiByte/s
system.mem_ctrls.avgWrBWSys                    122.75                       # Average system write bandwidth in MiByte/s
system.mem_ctrls.peakBW                      12800.00                       # Theoretical peak bandwidth in MiByte/s
system.mem_ctrls.busUtil                         1.74                       # Data bus utilization in percentage
system.mem_ctrls.busUtilRead                     0.78                       # Data bus utilization in percentage for reads
system.mem_ctrls.busUtilWrite                    0.96                       # Data bus utilization in percentage for writes
system.mem_ctrls.avgRdQLen                       2.43                       # Average read queue length when enqueuing
system.mem_ctrls.avgWrQLen                      18.18                       # Average write queue length when enqueuing
system.mem_ctrls.readRowHits                   467530                       # Number of row buffer hits during reads
system.mem_ctrls.writeRowHits                  603625                       # Number of row buffer hits during writes
system.mem_ctrls.readRowHitRate                 87.63                       # Row buffer hit rate for reads
system.mem_ctrls.writeRowHitRate                92.11                       # Row buffer hit rate for writes
system.mem_ctrls.avgGap                     574618.86                       # Average gap between requests
system.mem_ctrls.pageHitRate                    90.10                       # Row buffer hit rate, read and write combined
system.mem_ctrls_0.actEnergy                441934920                       # Energy for activate commands per rank (pJ)
system.mem_ctrls_0.preEnergy                241135125                       # Energy for precharge commands per rank (pJ)
system.mem_ctrls_0.readEnergy              2083536000                       # Energy for read commands per rank (pJ)
system.mem_ctrls_0.writeEnergy             2120288400                       # Energy for write commands per rank (pJ)
system.mem_ctrls_0.refreshEnergy          22318155600                       # Energy for refresh commands per rank (pJ)
system.mem_ctrls_0.actBackEnergy          73172213280                       # Energy for active background per rank (pJ)
system.mem_ctrls_0.preBackEnergy         140833752750                       # Energy for precharge background per rank (pJ)
system.mem_ctrls_0.totalEnergy           241211016075                       # Total energy per rank (pJ)
system.mem_ctrls_0.averagePower            705.914920                       # Core power per rank (mW)
system.mem_ctrls_0.memoryStateTime::IDLE 233833432750                       # Time in different power states
system.mem_ctrls_0.memoryStateTime::REF   11410100000                       # Time in different power states
system.mem_ctrls_0.memoryStateTime::PRE_PDN            0                       # Time in different power states
system.mem_ctrls_0.memoryStateTime::ACT   96456322250                       # Time in different power states
system.mem_ctrls_0.memoryStateTime::ACT_PDN            0                       # Time in different power states
system.mem_ctrls_1.actEnergy                447521760                       # Energy for activate commands per rank (pJ)
system.mem_ctrls_1.preEnergy                244183500                       # Energy for precharge commands per rank (pJ)
system.mem_ctrls_1.readEnergy              2077124400                       # Energy for read commands per rank (pJ)
system.mem_ctrls_1.writeEnergy             2126230560                       # Energy for write commands per rank (pJ)
system.mem_ctrls_1.refreshEnergy          22318155600                       # Energy for refresh commands per rank (pJ)
system.mem_ctrls_1.actBackEnergy          72535241700                       # Energy for active background per rank (pJ)
system.mem_ctrls_1.preBackEnergy         141392499750                       # Energy for precharge background per rank (pJ)
system.mem_ctrls_1.totalEnergy           241140957270                       # Total energy per rank (pJ)
system.mem_ctrls_1.averagePower            705.709890                       # Core power per rank (mW)
system.mem_ctrls_1.memoryStateTime::IDLE 234770571251                       # Time in different power states
system.mem_ctrls_1.memoryStateTime::REF   11410100000                       # Time in different power states
system.mem_ctrls_1.memoryStateTime::PRE_PDN            0                       # Time in different power states
system.mem_ctrls_1.memoryStateTime::ACT   95519610749                       # Time in different power states
system.mem_ctrls_1.memoryStateTime::ACT_PDN            0                       # Time in different power states
system.ruby_clk_domain.clock                      500                       # Clock period in ticks
system.ruby.phys_mem.bytes_read::cpu.inst   1911485192                       # Number of bytes read from this memory
system.ruby.phys_mem.bytes_read::cpu.data    147630881                       # Number of bytes read from this memory
system.ruby.phys_mem.bytes_read::gpu.ce      16896192                       # Number of bytes read from this memory
system.ruby.phys_mem.bytes_read::gpu.shader_cores00.data    753105376                       # Number of bytes read from this memory
system.ruby.phys_mem.bytes_read::gpu.shader_cores00.inst          280                       # Number of bytes read from this memory
system.ruby.phys_mem.bytes_read::gpu.shader_cores01.data    762643840                       # Number of bytes read from this memory
system.ruby.phys_mem.bytes_read::gpu.shader_cores01.inst          280                       # Number of bytes read from this memory
system.ruby.phys_mem.bytes_read::gpu.shader_cores02.data    769257024                       # Number of bytes read from this memory
system.ruby.phys_mem.bytes_read::gpu.shader_cores02.inst          280                       # Number of bytes read from this memory
system.ruby.phys_mem.bytes_read::gpu.shader_cores03.data    728430560                       # Number of bytes read from this memory
system.ruby.phys_mem.bytes_read::gpu.shader_cores03.inst          280                       # Number of bytes read from this memory
system.ruby.phys_mem.bytes_read::gpu.shader_cores04.data    751391488                       # Number of bytes read from this memory
system.ruby.phys_mem.bytes_read::gpu.shader_cores04.inst          280                       # Number of bytes read from this memory
system.ruby.phys_mem.bytes_read::gpu.shader_cores05.data    727945600                       # Number of bytes read from this memory
system.ruby.phys_mem.bytes_read::gpu.shader_cores05.inst          280                       # Number of bytes read from this memory
system.ruby.phys_mem.bytes_read::gpu.shader_cores06.data    781694272                       # Number of bytes read from this memory
system.ruby.phys_mem.bytes_read::gpu.shader_cores06.inst          280                       # Number of bytes read from this memory
system.ruby.phys_mem.bytes_read::gpu.shader_cores07.data    727346304                       # Number of bytes read from this memory
system.ruby.phys_mem.bytes_read::gpu.shader_cores07.inst          280                       # Number of bytes read from this memory
system.ruby.phys_mem.bytes_read::gpu.shader_cores08.data    727189184                       # Number of bytes read from this memory
system.ruby.phys_mem.bytes_read::gpu.shader_cores08.inst          280                       # Number of bytes read from this memory
system.ruby.phys_mem.bytes_read::gpu.shader_cores09.data    725529504                       # Number of bytes read from this memory
system.ruby.phys_mem.bytes_read::gpu.shader_cores09.inst          280                       # Number of bytes read from this memory
system.ruby.phys_mem.bytes_read::gpu.shader_cores10.data    729806496                       # Number of bytes read from this memory
system.ruby.phys_mem.bytes_read::gpu.shader_cores10.inst          280                       # Number of bytes read from this memory
system.ruby.phys_mem.bytes_read::gpu.shader_cores11.data    717175328                       # Number of bytes read from this memory
system.ruby.phys_mem.bytes_read::gpu.shader_cores11.inst          280                       # Number of bytes read from this memory
system.ruby.phys_mem.bytes_read::gpu.shader_cores12.data    715025184                       # Number of bytes read from this memory
system.ruby.phys_mem.bytes_read::gpu.shader_cores12.inst          280                       # Number of bytes read from this memory
system.ruby.phys_mem.bytes_read::gpu.shader_cores13.data    731957536                       # Number of bytes read from this memory
system.ruby.phys_mem.bytes_read::gpu.shader_cores13.inst          280                       # Number of bytes read from this memory
system.ruby.phys_mem.bytes_read::gpu.shader_cores14.data    741986592                       # Number of bytes read from this memory
system.ruby.phys_mem.bytes_read::gpu.shader_cores14.inst          280                       # Number of bytes read from this memory
system.ruby.phys_mem.bytes_read::gpu.shader_cores15.data    744272512                       # Number of bytes read from this memory
system.ruby.phys_mem.bytes_read::gpu.shader_cores15.inst          280                       # Number of bytes read from this memory
system.ruby.phys_mem.bytes_read::total    13910773545                       # Number of bytes read from this memory
system.ruby.phys_mem.bytes_inst_read::cpu.inst   1911485192                       # Number of instructions bytes read from this memory
system.ruby.phys_mem.bytes_inst_read::gpu.shader_cores00.inst          280                       # Number of instructions bytes read from this memory
system.ruby.phys_mem.bytes_inst_read::gpu.shader_cores01.inst          280                       # Number of instructions bytes read from this memory
system.ruby.phys_mem.bytes_inst_read::gpu.shader_cores02.inst          280                       # Number of instructions bytes read from this memory
system.ruby.phys_mem.bytes_inst_read::gpu.shader_cores03.inst          280                       # Number of instructions bytes read from this memory
system.ruby.phys_mem.bytes_inst_read::gpu.shader_cores04.inst          280                       # Number of instructions bytes read from this memory
system.ruby.phys_mem.bytes_inst_read::gpu.shader_cores05.inst          280                       # Number of instructions bytes read from this memory
system.ruby.phys_mem.bytes_inst_read::gpu.shader_cores06.inst          280                       # Number of instructions bytes read from this memory
system.ruby.phys_mem.bytes_inst_read::gpu.shader_cores07.inst          280                       # Number of instructions bytes read from this memory
system.ruby.phys_mem.bytes_inst_read::gpu.shader_cores08.inst          280                       # Number of instructions bytes read from this memory
system.ruby.phys_mem.bytes_inst_read::gpu.shader_cores09.inst          280                       # Number of instructions bytes read from this memory
system.ruby.phys_mem.bytes_inst_read::gpu.shader_cores10.inst          280                       # Number of instructions bytes read from this memory
system.ruby.phys_mem.bytes_inst_read::gpu.shader_cores11.inst          280                       # Number of instructions bytes read from this memory
system.ruby.phys_mem.bytes_inst_read::gpu.shader_cores12.inst          280                       # Number of instructions bytes read from this memory
system.ruby.phys_mem.bytes_inst_read::gpu.shader_cores13.inst          280                       # Number of instructions bytes read from this memory
system.ruby.phys_mem.bytes_inst_read::gpu.shader_cores14.inst          280                       # Number of instructions bytes read from this memory
system.ruby.phys_mem.bytes_inst_read::gpu.shader_cores15.inst          280                       # Number of instructions bytes read from this memory
system.ruby.phys_mem.bytes_inst_read::total   1911489672                       # Number of instructions bytes read from this memory
system.ruby.phys_mem.bytes_written::cpu.data     43635637                       # Number of bytes written to this memory
system.ruby.phys_mem.bytes_written::gpu.ce     16896192                       # Number of bytes written to this memory
system.ruby.phys_mem.bytes_written::gpu.shader_cores00.data       116856                       # Number of bytes written to this memory
system.ruby.phys_mem.bytes_written::gpu.shader_cores01.data       133396                       # Number of bytes written to this memory
system.ruby.phys_mem.bytes_written::gpu.shader_cores02.data       134536                       # Number of bytes written to this memory
system.ruby.phys_mem.bytes_written::gpu.shader_cores03.data       113592                       # Number of bytes written to this memory
system.ruby.phys_mem.bytes_written::gpu.shader_cores04.data       116188                       # Number of bytes written to this memory
system.ruby.phys_mem.bytes_written::gpu.shader_cores05.data       117692                       # Number of bytes written to this memory
system.ruby.phys_mem.bytes_written::gpu.shader_cores06.data       120456                       # Number of bytes written to this memory
system.ruby.phys_mem.bytes_written::gpu.shader_cores07.data       126856                       # Number of bytes written to this memory
system.ruby.phys_mem.bytes_written::gpu.shader_cores08.data       126776                       # Number of bytes written to this memory
system.ruby.phys_mem.bytes_written::gpu.shader_cores09.data       125944                       # Number of bytes written to this memory
system.ruby.phys_mem.bytes_written::gpu.shader_cores10.data       121976                       # Number of bytes written to this memory
system.ruby.phys_mem.bytes_written::gpu.shader_cores11.data       109312                       # Number of bytes written to this memory
system.ruby.phys_mem.bytes_written::gpu.shader_cores12.data       121016                       # Number of bytes written to this memory
system.ruby.phys_mem.bytes_written::gpu.shader_cores13.data       121920                       # Number of bytes written to this memory
system.ruby.phys_mem.bytes_written::gpu.shader_cores14.data       116692                       # Number of bytes written to this memory
system.ruby.phys_mem.bytes_written::gpu.shader_cores15.data       126796                       # Number of bytes written to this memory
system.ruby.phys_mem.bytes_written::total     62481833                       # Number of bytes written to this memory
system.ruby.phys_mem.num_reads::cpu.inst    238935649                       # Number of read requests responded to by this memory
system.ruby.phys_mem.num_reads::cpu.data     38966184                       # Number of read requests responded to by this memory
system.ruby.phys_mem.num_reads::gpu.ce         132021                       # Number of read requests responded to by this memory
system.ruby.phys_mem.num_reads::gpu.shader_cores00.data      9498972                       # Number of read requests responded to by this memory
system.ruby.phys_mem.num_reads::gpu.shader_cores00.inst           18                       # Number of read requests responded to by this memory
system.ruby.phys_mem.num_reads::gpu.shader_cores01.data      9612948                       # Number of read requests responded to by this memory
system.ruby.phys_mem.num_reads::gpu.shader_cores01.inst           18                       # Number of read requests responded to by this memory
system.ruby.phys_mem.num_reads::gpu.shader_cores02.data      9705729                       # Number of read requests responded to by this memory
system.ruby.phys_mem.num_reads::gpu.shader_cores02.inst           18                       # Number of read requests responded to by this memory
system.ruby.phys_mem.num_reads::gpu.shader_cores03.data      9219429                       # Number of read requests responded to by this memory
system.ruby.phys_mem.num_reads::gpu.shader_cores03.inst           18                       # Number of read requests responded to by this memory
system.ruby.phys_mem.num_reads::gpu.shader_cores04.data      9558864                       # Number of read requests responded to by this memory
system.ruby.phys_mem.num_reads::gpu.shader_cores04.inst           18                       # Number of read requests responded to by this memory
system.ruby.phys_mem.num_reads::gpu.shader_cores05.data      9247123                       # Number of read requests responded to by this memory
system.ruby.phys_mem.num_reads::gpu.shader_cores05.inst           18                       # Number of read requests responded to by this memory
system.ruby.phys_mem.num_reads::gpu.shader_cores06.data      9940560                       # Number of read requests responded to by this memory
system.ruby.phys_mem.num_reads::gpu.shader_cores06.inst           18                       # Number of read requests responded to by this memory
system.ruby.phys_mem.num_reads::gpu.shader_cores07.data      9126715                       # Number of read requests responded to by this memory
system.ruby.phys_mem.num_reads::gpu.shader_cores07.inst           18                       # Number of read requests responded to by this memory
system.ruby.phys_mem.num_reads::gpu.shader_cores08.data      9125820                       # Number of read requests responded to by this memory
system.ruby.phys_mem.num_reads::gpu.shader_cores08.inst           18                       # Number of read requests responded to by this memory
system.ruby.phys_mem.num_reads::gpu.shader_cores09.data      9157364                       # Number of read requests responded to by this memory
system.ruby.phys_mem.num_reads::gpu.shader_cores09.inst           18                       # Number of read requests responded to by this memory
system.ruby.phys_mem.num_reads::gpu.shader_cores10.data      9196194                       # Number of read requests responded to by this memory
system.ruby.phys_mem.num_reads::gpu.shader_cores10.inst           18                       # Number of read requests responded to by this memory
system.ruby.phys_mem.num_reads::gpu.shader_cores11.data      9034657                       # Number of read requests responded to by this memory
system.ruby.phys_mem.num_reads::gpu.shader_cores11.inst           18                       # Number of read requests responded to by this memory
system.ruby.phys_mem.num_reads::gpu.shader_cores12.data      8938750                       # Number of read requests responded to by this memory
system.ruby.phys_mem.num_reads::gpu.shader_cores12.inst           18                       # Number of read requests responded to by this memory
system.ruby.phys_mem.num_reads::gpu.shader_cores13.data      9148068                       # Number of read requests responded to by this memory
system.ruby.phys_mem.num_reads::gpu.shader_cores13.inst           18                       # Number of read requests responded to by this memory
system.ruby.phys_mem.num_reads::gpu.shader_cores14.data      9351017                       # Number of read requests responded to by this memory
system.ruby.phys_mem.num_reads::gpu.shader_cores14.inst           18                       # Number of read requests responded to by this memory
system.ruby.phys_mem.num_reads::gpu.shader_cores15.data      9333930                       # Number of read requests responded to by this memory
system.ruby.phys_mem.num_reads::gpu.shader_cores15.inst           18                       # Number of read requests responded to by this memory
system.ruby.phys_mem.num_reads::total       427230282                       # Number of read requests responded to by this memory
system.ruby.phys_mem.num_writes::cpu.data     16125679                       # Number of write requests responded to by this memory
system.ruby.phys_mem.num_writes::gpu.ce        132015                       # Number of write requests responded to by this memory
system.ruby.phys_mem.num_writes::gpu.shader_cores00.data         1174                       # Number of write requests responded to by this memory
system.ruby.phys_mem.num_writes::gpu.shader_cores01.data         1237                       # Number of write requests responded to by this memory
system.ruby.phys_mem.num_writes::gpu.shader_cores02.data         1479                       # Number of write requests responded to by this memory
system.ruby.phys_mem.num_writes::gpu.shader_cores03.data         1110                       # Number of write requests responded to by this memory
system.ruby.phys_mem.num_writes::gpu.shader_cores04.data         1419                       # Number of write requests responded to by this memory
system.ruby.phys_mem.num_writes::gpu.shader_cores05.data         1063                       # Number of write requests responded to by this memory
system.ruby.phys_mem.num_writes::gpu.shader_cores06.data         1397                       # Number of write requests responded to by this memory
system.ruby.phys_mem.num_writes::gpu.shader_cores07.data         1141                       # Number of write requests responded to by this memory
system.ruby.phys_mem.num_writes::gpu.shader_cores08.data         1158                       # Number of write requests responded to by this memory
system.ruby.phys_mem.num_writes::gpu.shader_cores09.data         1149                       # Number of write requests responded to by this memory
system.ruby.phys_mem.num_writes::gpu.shader_cores10.data         1092                       # Number of write requests responded to by this memory
system.ruby.phys_mem.num_writes::gpu.shader_cores11.data         1192                       # Number of write requests responded to by this memory
system.ruby.phys_mem.num_writes::gpu.shader_cores12.data         1153                       # Number of write requests responded to by this memory
system.ruby.phys_mem.num_writes::gpu.shader_cores13.data         1092                       # Number of write requests responded to by this memory
system.ruby.phys_mem.num_writes::gpu.shader_cores14.data         1179                       # Number of write requests responded to by this memory
system.ruby.phys_mem.num_writes::gpu.shader_cores15.data         1123                       # Number of write requests responded to by this memory
system.ruby.phys_mem.num_writes::total       16276852                       # Number of write requests responded to by this memory
system.ruby.phys_mem.bw_read::cpu.inst     5593987485                       # Total read bandwidth from this memory (bytes/s)
system.ruby.phys_mem.bw_read::cpu.data      432043787                       # Total read bandwidth from this memory (bytes/s)
system.ruby.phys_mem.bw_read::gpu.ce         49446936                       # Total read bandwidth from this memory (bytes/s)
system.ruby.phys_mem.bw_read::gpu.shader_cores00.data   2203973154                       # Total read bandwidth from this memory (bytes/s)
system.ruby.phys_mem.bw_read::gpu.shader_cores00.inst          819                       # Total read bandwidth from this memory (bytes/s)
system.ruby.phys_mem.bw_read::gpu.shader_cores01.data   2231887599                       # Total read bandwidth from this memory (bytes/s)
system.ruby.phys_mem.bw_read::gpu.shader_cores01.inst          819                       # Total read bandwidth from this memory (bytes/s)
system.ruby.phys_mem.bw_read::gpu.shader_cores02.data   2251241172                       # Total read bandwidth from this memory (bytes/s)
system.ruby.phys_mem.bw_read::gpu.shader_cores02.inst          819                       # Total read bandwidth from this memory (bytes/s)
system.ruby.phys_mem.bw_read::gpu.shader_cores03.data   2131761969                       # Total read bandwidth from this memory (bytes/s)
system.ruby.phys_mem.bw_read::gpu.shader_cores03.inst          819                       # Total read bandwidth from this memory (bytes/s)
system.ruby.phys_mem.bw_read::gpu.shader_cores04.data   2198957438                       # Total read bandwidth from this memory (bytes/s)
system.ruby.phys_mem.bw_read::gpu.shader_cores04.inst          819                       # Total read bandwidth from this memory (bytes/s)
system.ruby.phys_mem.bw_read::gpu.shader_cores05.data   2130342727                       # Total read bandwidth from this memory (bytes/s)
system.ruby.phys_mem.bw_read::gpu.shader_cores05.inst          819                       # Total read bandwidth from this memory (bytes/s)
system.ruby.phys_mem.bw_read::gpu.shader_cores06.data   2287638948                       # Total read bandwidth from this memory (bytes/s)
system.ruby.phys_mem.bw_read::gpu.shader_cores06.inst          819                       # Total read bandwidth from this memory (bytes/s)
system.ruby.phys_mem.bw_read::gpu.shader_cores07.data   2128588879                       # Total read bandwidth from this memory (bytes/s)
system.ruby.phys_mem.bw_read::gpu.shader_cores07.inst          819                       # Total read bandwidth from this memory (bytes/s)
system.ruby.phys_mem.bw_read::gpu.shader_cores08.data   2128129065                       # Total read bandwidth from this memory (bytes/s)
system.ruby.phys_mem.bw_read::gpu.shader_cores08.inst          819                       # Total read bandwidth from this memory (bytes/s)
system.ruby.phys_mem.bw_read::gpu.shader_cores09.data   2123271989                       # Total read bandwidth from this memory (bytes/s)
system.ruby.phys_mem.bw_read::gpu.shader_cores09.inst          819                       # Total read bandwidth from this memory (bytes/s)
system.ruby.phys_mem.bw_read::gpu.shader_cores10.data   2135788664                       # Total read bandwidth from this memory (bytes/s)
system.ruby.phys_mem.bw_read::gpu.shader_cores10.inst          819                       # Total read bandwidth from this memory (bytes/s)
system.ruby.phys_mem.bw_read::gpu.shader_cores11.data   2098823379                       # Total read bandwidth from this memory (bytes/s)
system.ruby.phys_mem.bw_read::gpu.shader_cores11.inst          819                       # Total read bandwidth from this memory (bytes/s)
system.ruby.phys_mem.bw_read::gpu.shader_cores12.data   2092530953                       # Total read bandwidth from this memory (bytes/s)
system.ruby.phys_mem.bw_read::gpu.shader_cores12.inst          819                       # Total read bandwidth from this memory (bytes/s)
system.ruby.phys_mem.bw_read::gpu.shader_cores13.data   2142083712                       # Total read bandwidth from this memory (bytes/s)
system.ruby.phys_mem.bw_read::gpu.shader_cores13.inst          819                       # Total read bandwidth from this memory (bytes/s)
system.ruby.phys_mem.bw_read::gpu.shader_cores14.data   2171433881                       # Total read bandwidth from this memory (bytes/s)
system.ruby.phys_mem.bw_read::gpu.shader_cores14.inst          819                       # Total read bandwidth from this memory (bytes/s)
system.ruby.phys_mem.bw_read::gpu.shader_cores15.data   2178123657                       # Total read bandwidth from this memory (bytes/s)
system.ruby.phys_mem.bw_read::gpu.shader_cores15.inst          819                       # Total read bandwidth from this memory (bytes/s)
system.ruby.phys_mem.bw_read::total       40710068506                       # Total read bandwidth from this memory (bytes/s)
system.ruby.phys_mem.bw_inst_read::cpu.inst   5593987485                       # Instruction read bandwidth from this memory (bytes/s)
system.ruby.phys_mem.bw_inst_read::gpu.shader_cores00.inst          819                       # Instruction read bandwidth from this memory (bytes/s)
system.ruby.phys_mem.bw_inst_read::gpu.shader_cores01.inst          819                       # Instruction read bandwidth from this memory (bytes/s)
system.ruby.phys_mem.bw_inst_read::gpu.shader_cores02.inst          819                       # Instruction read bandwidth from this memory (bytes/s)
system.ruby.phys_mem.bw_inst_read::gpu.shader_cores03.inst          819                       # Instruction read bandwidth from this memory (bytes/s)
system.ruby.phys_mem.bw_inst_read::gpu.shader_cores04.inst          819                       # Instruction read bandwidth from this memory (bytes/s)
system.ruby.phys_mem.bw_inst_read::gpu.shader_cores05.inst          819                       # Instruction read bandwidth from this memory (bytes/s)
system.ruby.phys_mem.bw_inst_read::gpu.shader_cores06.inst          819                       # Instruction read bandwidth from this memory (bytes/s)
system.ruby.phys_mem.bw_inst_read::gpu.shader_cores07.inst          819                       # Instruction read bandwidth from this memory (bytes/s)
system.ruby.phys_mem.bw_inst_read::gpu.shader_cores08.inst          819                       # Instruction read bandwidth from this memory (bytes/s)
system.ruby.phys_mem.bw_inst_read::gpu.shader_cores09.inst          819                       # Instruction read bandwidth from this memory (bytes/s)
system.ruby.phys_mem.bw_inst_read::gpu.shader_cores10.inst          819                       # Instruction read bandwidth from this memory (bytes/s)
system.ruby.phys_mem.bw_inst_read::gpu.shader_cores11.inst          819                       # Instruction read bandwidth from this memory (bytes/s)
system.ruby.phys_mem.bw_inst_read::gpu.shader_cores12.inst          819                       # Instruction read bandwidth from this memory (bytes/s)
system.ruby.phys_mem.bw_inst_read::gpu.shader_cores13.inst          819                       # Instruction read bandwidth from this memory (bytes/s)
system.ruby.phys_mem.bw_inst_read::gpu.shader_cores14.inst          819                       # Instruction read bandwidth from this memory (bytes/s)
system.ruby.phys_mem.bw_inst_read::gpu.shader_cores15.inst          819                       # Instruction read bandwidth from this memory (bytes/s)
system.ruby.phys_mem.bw_inst_read::total   5594000596                       # Instruction read bandwidth from this memory (bytes/s)
system.ruby.phys_mem.bw_write::cpu.data     127700287                       # Write bandwidth from this memory (bytes/s)
system.ruby.phys_mem.bw_write::gpu.ce        49446936                       # Write bandwidth from this memory (bytes/s)
system.ruby.phys_mem.bw_write::gpu.shader_cores00.data       341981                       # Write bandwidth from this memory (bytes/s)
system.ruby.phys_mem.bw_write::gpu.shader_cores01.data       390385                       # Write bandwidth from this memory (bytes/s)
system.ruby.phys_mem.bw_write::gpu.shader_cores02.data       393721                       # Write bandwidth from this memory (bytes/s)
system.ruby.phys_mem.bw_write::gpu.shader_cores03.data       332429                       # Write bandwidth from this memory (bytes/s)
system.ruby.phys_mem.bw_write::gpu.shader_cores04.data       340026                       # Write bandwidth from this memory (bytes/s)
system.ruby.phys_mem.bw_write::gpu.shader_cores05.data       344427                       # Write bandwidth from this memory (bytes/s)
system.ruby.phys_mem.bw_write::gpu.shader_cores06.data       352516                       # Write bandwidth from this memory (bytes/s)
system.ruby.phys_mem.bw_write::gpu.shader_cores07.data       371246                       # Write bandwidth from this memory (bytes/s)
system.ruby.phys_mem.bw_write::gpu.shader_cores08.data       371012                       # Write bandwidth from this memory (bytes/s)
system.ruby.phys_mem.bw_write::gpu.shader_cores09.data       368577                       # Write bandwidth from this memory (bytes/s)
system.ruby.phys_mem.bw_write::gpu.shader_cores10.data       356964                       # Write bandwidth from this memory (bytes/s)
system.ruby.phys_mem.bw_write::gpu.shader_cores11.data       319903                       # Write bandwidth from this memory (bytes/s)
system.ruby.phys_mem.bw_write::gpu.shader_cores12.data       354155                       # Write bandwidth from this memory (bytes/s)
system.ruby.phys_mem.bw_write::gpu.shader_cores13.data       356801                       # Write bandwidth from this memory (bytes/s)
system.ruby.phys_mem.bw_write::gpu.shader_cores14.data       341501                       # Write bandwidth from this memory (bytes/s)
system.ruby.phys_mem.bw_write::gpu.shader_cores15.data       371070                       # Write bandwidth from this memory (bytes/s)
system.ruby.phys_mem.bw_write::total        182853936                       # Write bandwidth from this memory (bytes/s)
system.ruby.phys_mem.bw_total::cpu.inst    5593987485                       # Total bandwidth to/from this memory (bytes/s)
system.ruby.phys_mem.bw_total::cpu.data     559744074                       # Total bandwidth to/from this memory (bytes/s)
system.ruby.phys_mem.bw_total::gpu.ce        98893873                       # Total bandwidth to/from this memory (bytes/s)
system.ruby.phys_mem.bw_total::gpu.shader_cores00.data   2204315135                       # Total bandwidth to/from this memory (bytes/s)
system.ruby.phys_mem.bw_total::gpu.shader_cores00.inst          819                       # Total bandwidth to/from this memory (bytes/s)
system.ruby.phys_mem.bw_total::gpu.shader_cores01.data   2232277985                       # Total bandwidth to/from this memory (bytes/s)
system.ruby.phys_mem.bw_total::gpu.shader_cores01.inst          819                       # Total bandwidth to/from this memory (bytes/s)
system.ruby.phys_mem.bw_total::gpu.shader_cores02.data   2251634894                       # Total bandwidth to/from this memory (bytes/s)
system.ruby.phys_mem.bw_total::gpu.shader_cores02.inst          819                       # Total bandwidth to/from this memory (bytes/s)
system.ruby.phys_mem.bw_total::gpu.shader_cores03.data   2132094397                       # Total bandwidth to/from this memory (bytes/s)
system.ruby.phys_mem.bw_total::gpu.shader_cores03.inst          819                       # Total bandwidth to/from this memory (bytes/s)
system.ruby.phys_mem.bw_total::gpu.shader_cores04.data   2199297463                       # Total bandwidth to/from this memory (bytes/s)
system.ruby.phys_mem.bw_total::gpu.shader_cores04.inst          819                       # Total bandwidth to/from this memory (bytes/s)
system.ruby.phys_mem.bw_total::gpu.shader_cores05.data   2130687154                       # Total bandwidth to/from this memory (bytes/s)
system.ruby.phys_mem.bw_total::gpu.shader_cores05.inst          819                       # Total bandwidth to/from this memory (bytes/s)
system.ruby.phys_mem.bw_total::gpu.shader_cores06.data   2287991465                       # Total bandwidth to/from this memory (bytes/s)
system.ruby.phys_mem.bw_total::gpu.shader_cores06.inst          819                       # Total bandwidth to/from this memory (bytes/s)
system.ruby.phys_mem.bw_total::gpu.shader_cores07.data   2128960125                       # Total bandwidth to/from this memory (bytes/s)
system.ruby.phys_mem.bw_total::gpu.shader_cores07.inst          819                       # Total bandwidth to/from this memory (bytes/s)
system.ruby.phys_mem.bw_total::gpu.shader_cores08.data   2128500077                       # Total bandwidth to/from this memory (bytes/s)
system.ruby.phys_mem.bw_total::gpu.shader_cores08.inst          819                       # Total bandwidth to/from this memory (bytes/s)
system.ruby.phys_mem.bw_total::gpu.shader_cores09.data   2123640566                       # Total bandwidth to/from this memory (bytes/s)
system.ruby.phys_mem.bw_total::gpu.shader_cores09.inst          819                       # Total bandwidth to/from this memory (bytes/s)
system.ruby.phys_mem.bw_total::gpu.shader_cores10.data   2136145629                       # Total bandwidth to/from this memory (bytes/s)
system.ruby.phys_mem.bw_total::gpu.shader_cores10.inst          819                       # Total bandwidth to/from this memory (bytes/s)
system.ruby.phys_mem.bw_total::gpu.shader_cores11.data   2099143282                       # Total bandwidth to/from this memory (bytes/s)
system.ruby.phys_mem.bw_total::gpu.shader_cores11.inst          819                       # Total bandwidth to/from this memory (bytes/s)
system.ruby.phys_mem.bw_total::gpu.shader_cores12.data   2092885108                       # Total bandwidth to/from this memory (bytes/s)
system.ruby.phys_mem.bw_total::gpu.shader_cores12.inst          819                       # Total bandwidth to/from this memory (bytes/s)
system.ruby.phys_mem.bw_total::gpu.shader_cores13.data   2142440513                       # Total bandwidth to/from this memory (bytes/s)
system.ruby.phys_mem.bw_total::gpu.shader_cores13.inst          819                       # Total bandwidth to/from this memory (bytes/s)
system.ruby.phys_mem.bw_total::gpu.shader_cores14.data   2171775382                       # Total bandwidth to/from this memory (bytes/s)
system.ruby.phys_mem.bw_total::gpu.shader_cores14.inst          819                       # Total bandwidth to/from this memory (bytes/s)
system.ruby.phys_mem.bw_total::gpu.shader_cores15.data   2178494728                       # Total bandwidth to/from this memory (bytes/s)
system.ruby.phys_mem.bw_total::gpu.shader_cores15.inst          819                       # Total bandwidth to/from this memory (bytes/s)
system.ruby.phys_mem.bw_total::total      40892922442                       # Total bandwidth to/from this memory (bytes/s)
system.cpu_voltage_domain.voltage                   1                       # Voltage in Volts
system.cpu_clk_domain.clock                       500                       # Clock period in ticks
system.cpu.apic_clk_domain.clock                 8000                       # Clock period in ticks
system.cpu.workload.num_syscalls                  206                       # Number of system calls
system.cpu.numCycles                        683407032                       # number of cpu cycles simulated
system.cpu.numWorkItemsStarted                      0                       # number of work items this cpu started
system.cpu.numWorkItemsCompleted                    0                       # number of work items this cpu completed
system.cpu.committedInsts                   179257378                       # Number of instructions committed
system.cpu.committedOps                     334846529                       # Number of ops (including micro ops) committed
system.cpu.num_int_alu_accesses             315492231                       # Number of integer alu accesses
system.cpu.num_fp_alu_accesses               23756605                       # Number of float alu accesses
system.cpu.num_func_calls                       80010                       # number of times a function call or return occured
system.cpu.num_conditional_control_insts     20409153                       # number of instructions that are conditional controls
system.cpu.num_int_insts                    315492231                       # number of integer instructions
system.cpu.num_fp_insts                      23756605                       # number of float instructions
system.cpu.num_int_register_reads           690362566                       # number of times the integer registers were read
system.cpu.num_int_register_writes          300863148                       # number of times the integer registers were written
system.cpu.num_fp_register_reads             44888645                       # number of times the floating registers were read
system.cpu.num_fp_register_writes            22442687                       # number of times the floating registers were written
system.cpu.num_cc_register_reads            244101678                       # number of times the CC registers were read
system.cpu.num_cc_register_writes           138408390                       # number of times the CC registers were written
system.cpu.num_mem_refs                      54888126                       # number of memory refs
system.cpu.num_load_insts                    38796337                       # Number of load instructions
system.cpu.num_store_insts                   16091789                       # Number of store instructions
system.cpu.num_idle_cycles               71623396.061790                       # Number of idle cycles
system.cpu.num_busy_cycles               611783635.938210                       # Number of busy cycles
system.cpu.not_idle_fraction                 0.895197                       # Percentage of non-idle cycles
system.cpu.idle_fraction                     0.104803                       # Percentage of idle cycles
system.cpu.Branches                          21357381                       # Number of branches fetched
system.cpu.op_class::No_OpClass               2675709      0.80%      0.80% # Class of executed instruction
system.cpu.op_class::IntAlu                 244151930     72.91%     73.71% # Class of executed instruction
system.cpu.op_class::IntMult                  4012311      1.20%     74.91% # Class of executed instruction
system.cpu.op_class::IntDiv                  11045602      3.30%     78.21% # Class of executed instruction
system.cpu.op_class::FloatAdd                18072851      5.40%     83.61% # Class of executed instruction
system.cpu.op_class::FloatCmp                       0      0.00%     83.61% # Class of executed instruction
system.cpu.op_class::FloatCvt                       0      0.00%     83.61% # Class of executed instruction
system.cpu.op_class::FloatMult                      0      0.00%     83.61% # Class of executed instruction
system.cpu.op_class::FloatDiv                       0      0.00%     83.61% # Class of executed instruction
system.cpu.op_class::FloatSqrt                      0      0.00%     83.61% # Class of executed instruction
system.cpu.op_class::SimdAdd                        0      0.00%     83.61% # Class of executed instruction
system.cpu.op_class::SimdAddAcc                     0      0.00%     83.61% # Class of executed instruction
system.cpu.op_class::SimdAlu                        0      0.00%     83.61% # Class of executed instruction
system.cpu.op_class::SimdCmp                        0      0.00%     83.61% # Class of executed instruction
system.cpu.op_class::SimdCvt                        0      0.00%     83.61% # Class of executed instruction
system.cpu.op_class::SimdMisc                       0      0.00%     83.61% # Class of executed instruction
system.cpu.op_class::SimdMult                       0      0.00%     83.61% # Class of executed instruction
system.cpu.op_class::SimdMultAcc                    0      0.00%     83.61% # Class of executed instruction
system.cpu.op_class::SimdShift                      0      0.00%     83.61% # Class of executed instruction
system.cpu.op_class::SimdShiftAcc                   0      0.00%     83.61% # Class of executed instruction
system.cpu.op_class::SimdSqrt                       0      0.00%     83.61% # Class of executed instruction
system.cpu.op_class::SimdFloatAdd                   0      0.00%     83.61% # Class of executed instruction
system.cpu.op_class::SimdFloatAlu                   0      0.00%     83.61% # Class of executed instruction
system.cpu.op_class::SimdFloatCmp                   0      0.00%     83.61% # Class of executed instruction
system.cpu.op_class::SimdFloatCvt                   0      0.00%     83.61% # Class of executed instruction
system.cpu.op_class::SimdFloatDiv                   0      0.00%     83.61% # Class of executed instruction
system.cpu.op_class::SimdFloatMisc                  0      0.00%     83.61% # Class of executed instruction
system.cpu.op_class::SimdFloatMult                  0      0.00%     83.61% # Class of executed instruction
system.cpu.op_class::SimdFloatMultAcc               0      0.00%     83.61% # Class of executed instruction
system.cpu.op_class::SimdFloatSqrt                  0      0.00%     83.61% # Class of executed instruction
system.cpu.op_class::MemRead                 38796337     11.59%     95.19% # Class of executed instruction
system.cpu.op_class::MemWrite                16091789      4.81%    100.00% # Class of executed instruction
system.cpu.op_class::IprAccess                      0      0.00%    100.00% # Class of executed instruction
system.cpu.op_class::InstPrefetch                   0      0.00%    100.00% # Class of executed instruction
system.cpu.op_class::total                  334846529                       # Class of executed instruction
system.gpu.clk_domain.voltage_domain.voltage            1                       # Voltage in Volts
system.gpu.clk_domain.clock                      1429                       # Clock period in ticks
system.gpu.dram_wrapper.clk_domain.clock          541                       # Clock period in ticks
system.gpu.icnt_wrapper.clk_domain.clock         2858                       # Clock period in ticks
system.ruby.delayHist::bucket_size                 32                       # delay histogram for all message
system.ruby.delayHist::max_bucket                 319                       # delay histogram for all message
system.ruby.delayHist::samples                 734159                       # delay histogram for all message
system.ruby.delayHist::mean                  0.913933                       # delay histogram for all message
system.ruby.delayHist::stdev                 3.723555                       # delay histogram for all message
system.ruby.delayHist                    |      733501     99.91%     99.91% |         360      0.05%     99.96% |         125      0.02%     99.98% |          92      0.01%     99.99% |          24      0.00%     99.99% |          13      0.00%     99.99% |          17      0.00%    100.00% |          11      0.00%    100.00% |          12      0.00%    100.00% |           4      0.00%    100.00% # delay histogram for all message
system.ruby.delayHist::total                   734159                       # delay histogram for all message
system.ruby.outstanding_req_hist::bucket_size           16                      
system.ruby.outstanding_req_hist::max_bucket          159                      
system.ruby.outstanding_req_hist::samples    443507134                      
system.ruby.outstanding_req_hist::mean       1.212819                      
system.ruby.outstanding_req_hist::gmean      1.083969                      
system.ruby.outstanding_req_hist::stdev      3.127951                      
system.ruby.outstanding_req_hist         |   443180639     99.93%     99.93% |       41033      0.01%     99.94% |       22543      0.01%     99.94% |         613      0.00%     99.94% |         460      0.00%     99.94% |         634      0.00%     99.94% |        2235      0.00%     99.94% |       23477      0.01%     99.95% |      235500      0.05%    100.00% |           0      0.00%    100.00%
system.ruby.outstanding_req_hist::total     443507134                      
system.ruby.latency_hist::bucket_size            2048                      
system.ruby.latency_hist::max_bucket            20479                      
system.ruby.latency_hist::samples           443507134                      
system.ruby.latency_hist::mean               4.532070                      
system.ruby.latency_hist::gmean              1.019997                      
system.ruby.latency_hist::stdev            124.646046                      
system.ruby.latency_hist                 |   443264712     99.95%     99.95% |       44329      0.01%     99.96% |      165396      0.04%     99.99% |       25356      0.01%    100.00% |        3845      0.00%    100.00% |        1646      0.00%    100.00% |        1736      0.00%    100.00% |         100      0.00%    100.00% |           7      0.00%    100.00% |           7      0.00%    100.00%
system.ruby.latency_hist::total             443507134                      
system.ruby.hit_latency_hist::bucket_size         2048                      
system.ruby.hit_latency_hist::max_bucket        20479                      
system.ruby.hit_latency_hist::samples       442666660                      
system.ruby.hit_latency_hist::mean           3.686506                      
system.ruby.hit_latency_hist::gmean          1.008754                      
system.ruby.hit_latency_hist::stdev        117.717497                      
system.ruby.hit_latency_hist             |   442433764     99.95%     99.95% |       41669      0.01%     99.96% |      164073      0.04%     99.99% |       23478      0.01%    100.00% |        2795      0.00%    100.00% |         497      0.00%    100.00% |         272      0.00%    100.00% |          98      0.00%    100.00% |           7      0.00%    100.00% |           7      0.00%    100.00%
system.ruby.hit_latency_hist::total         442666660                      
system.ruby.miss_latency_hist::bucket_size         2048                      
system.ruby.miss_latency_hist::max_bucket        20479                      
system.ruby.miss_latency_hist::samples         840474                      
system.ruby.miss_latency_hist::mean        449.879566                      
system.ruby.miss_latency_hist::gmean       349.920729                      
system.ruby.miss_latency_hist::stdev       837.409024                      
system.ruby.miss_latency_hist            |      830948     98.87%     98.87% |        2660      0.32%     99.18% |        1323      0.16%     99.34% |        1878      0.22%     99.56% |        1050      0.12%     99.69% |        1149      0.14%     99.83% |        1464      0.17%    100.00% |           2      0.00%    100.00% |           0      0.00%    100.00% |           0      0.00%    100.00%
system.ruby.miss_latency_hist::total           840474                      
system.ruby.L1Cache.incomplete_times                2                      
system.ruby.GPUL2Cache.incomplete_times        677521                      
system.ruby.Directory.incomplete_times          37478                      
system.gpu.shader_mmu.numPagefaults                 0                       # Number of Pagefaults
system.gpu.shader_mmu.numPagewalks              23390                       # Number of Pagewalks
system.gpu.shader_mmu.totalRequests             23390                       # Total number of requests
system.gpu.shader_mmu.l2hits                        0                       # Hits in the shared L2
system.gpu.shader_mmu.prefetchHits                  0                       # Number of prefetch hits
system.gpu.shader_mmu.numPrefetches                 0                       # Number of prefetchs
system.gpu.shader_mmu.prefetchFaults                0                       # Number of faults caused by prefetches
system.gpu.shader_mmu.pagefaultLatency::samples            0                       # Latency to complete the pagefault
system.gpu.shader_mmu.pagefaultLatency::mean          nan                       # Latency to complete the pagefault
system.gpu.shader_mmu.pagefaultLatency::gmean          nan                       # Latency to complete the pagefault
system.gpu.shader_mmu.pagefaultLatency::stdev          nan                       # Latency to complete the pagefault
system.gpu.shader_mmu.pagefaultLatency::0            0                       # Latency to complete the pagefault
[...]
system.ruby.L1Cache_Controller.SR.Ifetch::total            1                      
system.ruby.L1Cache_Controller.OR.Load   |          43    100.00%    100.00% |           0      0.00%    100.00%
system.ruby.L1Cache_Controller.OR.Load::total           43                      
system.ruby.L1Cache_Controller.MR.Load   |        8568    100.00%    100.00% |           0      0.00%    100.00%
system.ruby.L1Cache_Controller.MR.Load::total         8568                      
system.ruby.L1Cache_Controller.MR.Ifetch |       10656    100.00%    100.00% |           0      0.00%    100.00%
system.ruby.L1Cache_Controller.MR.Ifetch::total        10656                      
system.ruby.L1Cache_Controller.MR.Store  |          20    100.00%    100.00% |           0      0.00%    100.00%
system.ruby.L1Cache_Controller.MR.Store::total           20                      
system.ruby.L1Cache_Controller.MMR.Load  |       70018    100.00%    100.00% |           0      0.00%    100.00%
system.ruby.L1Cache_Controller.MMR.Load::total        70018                      
system.ruby.L1Cache_Controller.MMR.Store |      493952    100.00%    100.00% |           0      0.00%    100.00%
system.ruby.L1Cache_Controller.MMR.Store::total       493952                      
system.ruby.L1Cache_Controller.IM.Ack    |      157069    100.00%    100.00% |           0      0.00%    100.00%
system.ruby.L1Cache_Controller.IM.Ack::total       157069                      
system.ruby.L1Cache_Controller.IM.Exclusive_Data |       78536    100.00%    100.00% |           0      0.00%    100.00%
system.ruby.L1Cache_Controller.IM.Exclusive_Data::total        78536                      
system.ruby.L1Cache_Controller.SM.Ack    |           6    100.00%    100.00% |           0      0.00%    100.00%
system.ruby.L1Cache_Controller.SM.Ack::total            6                      
system.ruby.L1Cache_Controller.SM.Data   |           6    100.00%    100.00% |           0      0.00%    100.00%
system.ruby.L1Cache_Controller.SM.Data::total            6                      
system.ruby.L1Cache_Controller.OM.Ack    |           6    100.00%    100.00% |           0      0.00%    100.00%
system.ruby.L1Cache_Controller.OM.Ack::total            6                      
system.ruby.L1Cache_Controller.OM.All_acks_no_sharers |           3    100.00%    100.00% |           0      0.00%    100.00%
system.ruby.L1Cache_Controller.OM.All_acks_no_sharers::total            3                      
system.ruby.L1Cache_Controller.ISM.All_acks_no_sharers |           6    100.00%    100.00% |           0      0.00%    100.00%
system.ruby.L1Cache_Controller.ISM.All_acks_no_sharers::total            6                      
system.ruby.L1Cache_Controller.M_W.Load  |           6    100.00%    100.00% |           0      0.00%    100.00%
system.ruby.L1Cache_Controller.M_W.Load::total            6                      
system.ruby.L1Cache_Controller.M_W.Ack   |         224    100.00%    100.00% |           0      0.00%    100.00%
system.ruby.L1Cache_Controller.M_W.Ack::total          224                      
system.ruby.L1Cache_Controller.M_W.All_acks_no_sharers |       45467    100.00%    100.00% |           0      0.00%    100.00%
system.ruby.L1Cache_Controller.M_W.All_acks_no_sharers::total        45467                      
system.ruby.L1Cache_Controller.MM_W.Store |           4    100.00%    100.00% |           0      0.00%    100.00%
system.ruby.L1Cache_Controller.MM_W.Store::total            4                      
system.ruby.L1Cache_Controller.MM_W.Ack  |           3    100.00%    100.00% |           0      0.00%    100.00%
system.ruby.L1Cache_Controller.MM_W.Ack::total            3                      
system.ruby.L1Cache_Controller.MM_W.All_acks_no_sharers |       78536    100.00%    100.00% |           0      0.00%    100.00%
system.ruby.L1Cache_Controller.MM_W.All_acks_no_sharers::total        78536                      
system.ruby.L1Cache_Controller.IS.Ack    |       93624    100.00%    100.00% |           0      0.00%    100.00%
system.ruby.L1Cache_Controller.IS.Ack::total        93624                      
system.ruby.L1Cache_Controller.IS.Data   |        1454    100.00%    100.00% |           0      0.00%    100.00%
system.ruby.L1Cache_Controller.IS.Data::total         1454                      
system.ruby.L1Cache_Controller.IS.Shared_Data |           7    100.00%    100.00% |           0      0.00%    100.00%
system.ruby.L1Cache_Controller.IS.Shared_Data::total            7                      
system.ruby.L1Cache_Controller.IS.Exclusive_Data |       45467    100.00%    100.00% |           0      0.00%    100.00%
system.ruby.L1Cache_Controller.IS.Exclusive_Data::total        45467                      
system.ruby.L1Cache_Controller.SS.Ack    |           1    100.00%    100.00% |           0      0.00%    100.00%
system.ruby.L1Cache_Controller.SS.Ack::total            1                      
system.ruby.L1Cache_Controller.SS.All_acks |           7    100.00%    100.00% |           0      0.00%    100.00%
system.ruby.L1Cache_Controller.SS.All_acks::total            7                      
system.ruby.L1Cache_Controller.SS.All_acks_no_sharers |        1454    100.00%    100.00% |           0      0.00%    100.00%
system.ruby.L1Cache_Controller.SS.All_acks_no_sharers::total         1454                      
system.ruby.L1Cache_Controller.OI.Writeback_Ack |        1710    100.00%    100.00% |           0      0.00%    100.00%
system.ruby.L1Cache_Controller.OI.Writeback_Ack::total         1710                      
system.ruby.L1Cache_Controller.MI.Load   |         182    100.00%    100.00% |           0      0.00%    100.00%
system.ruby.L1Cache_Controller.MI.Load::total          182                      
system.ruby.L1Cache_Controller.MI.Writeback_Ack |       94685    100.00%    100.00% |           0      0.00%    100.00%
system.ruby.L1Cache_Controller.MI.Writeback_Ack::total        94685                      
system.ruby.L1Cache_Controller.IT.Complete_L2_to_L1 |         665    100.00%    100.00% |           0      0.00%    100.00%
system.ruby.L1Cache_Controller.IT.Complete_L2_to_L1::total          665                      
system.ruby.L1Cache_Controller.ST.Complete_L2_to_L1 |           1    100.00%    100.00% |           0      0.00%    100.00%
system.ruby.L1Cache_Controller.ST.Complete_L2_to_L1::total            1                      
system.ruby.L1Cache_Controller.OT.Complete_L2_to_L1 |          43    100.00%    100.00% |           0      0.00%    100.00%
system.ruby.L1Cache_Controller.OT.Complete_L2_to_L1::total           43                      
system.ruby.L1Cache_Controller.MT.Complete_L2_to_L1 |       19244    100.00%    100.00% |           0      0.00%    100.00%
system.ruby.L1Cache_Controller.MT.Complete_L2_to_L1::total        19244                      
system.ruby.L1Cache_Controller.MMT.Store |           6    100.00%    100.00% |           0      0.00%    100.00%
system.ruby.L1Cache_Controller.MMT.Store::total            6                      
system.ruby.L1Cache_Controller.MMT.Complete_L2_to_L1 |      563970    100.00%    100.00% |           0      0.00%    100.00%
system.ruby.L1Cache_Controller.MMT.Complete_L2_to_L1::total       563970                      
system.ruby.GPUL1Cache_Controller.Load   |     9498972      6.37%      6.37% |     9612948      6.44%     12.81% |     9705729      6.51%     19.32% |     9219429      6.18%     25.49% |     9558864      6.41%     31.90% |     9247123      6.20%     38.10% |     9940560      6.66%     44.76% |     9126715      6.12%     50.88% |     9125820      6.12%     57.00% |     9157364      6.14%     63.13% |     9196194      6.16%     69.30% |     9034657      6.06%     75.35% |     8938750      5.99%     81.34% |     9148068      6.13%     87.48% |     9351017      6.27%     93.74% |     9333930      6.26%    100.00%
system.ruby.GPUL1Cache_Controller.Load::total    149196140                      
system.ruby.GPUL1Cache_Controller.Ifetch |          18      6.25%      6.25% |          18      6.25%     12.50% |          18      6.25%     18.75% |          18      6.25%     25.00% |          18      6.25%     31.25% |          18      6.25%     37.50% |          18      6.25%     43.75% |          18      6.25%     50.00% |          18      6.25%     56.25% |          18      6.25%     62.50% |          18      6.25%     68.75% |          18      6.25%     75.00% |          18      6.25%     81.25% |          18      6.25%     87.50% |          18      6.25%     93.75% |          18      6.25%    100.00%
system.ruby.GPUL1Cache_Controller.Ifetch::total          288                      
system.ruby.GPUL1Cache_Controller.Store  |        1174      6.13%      6.13% |        1237      6.46%     12.58% |        1479      7.72%     20.30% |        1110      5.79%     26.10% |        1419      7.41%     33.51% |        1063      5.55%     39.05% |        1397      7.29%     46.35% |        1141      5.96%     52.30% |        1158      6.04%     58.35% |        1149      6.00%     64.34% |        1092      5.70%     70.04% |        1192      6.22%     76.27% |        1153      6.02%     82.28% |        1092      5.70%     87.98% |        1179      6.15%     94.14% |        1123      5.86%    100.00%
system.ruby.GPUL1Cache_Controller.Store::total        19158                      
system.ruby.GPUL1Cache_Controller.Data   |       46623      6.52%      6.52% |       43846      6.13%     12.65% |       44688      6.25%     18.90% |       45940      6.43%     25.33% |       47821      6.69%     32.02% |       42971      6.01%     38.03% |       51246      7.17%     45.19% |       42118      5.89%     51.08% |       41768      5.84%     56.93% |       44101      6.17%     63.09% |       43112      6.03%     69.12% |       46922      6.56%     75.69% |       43787      6.12%     81.81% |       42350      5.92%     87.73% |       44599      6.24%     93.97% |       43109      6.03%    100.00%
system.ruby.GPUL1Cache_Controller.Data::total       715001                      
system.ruby.GPUL1Cache_Controller.Replacement |       45903      6.52%      6.52% |       43094      6.12%     12.64% |       43926      6.24%     18.88% |       45283      6.43%     25.32% |       47133      6.70%     32.01% |       42317      6.01%     38.02% |       50594      7.19%     45.21% |       41479      5.89%     51.11% |       41113      5.84%     56.95% |       43440      6.17%     63.12% |       42442      6.03%     69.15% |       46232      6.57%     75.71% |       43061      6.12%     81.83% |       41624      5.91%     87.75% |       43877      6.23%     93.98% |       42380      6.02%    100.00%
system.ruby.GPUL1Cache_Controller.Replacement::total       703898                      
system.ruby.GPUL1Cache_Controller.Write_Ack |        1174      6.13%      6.13% |        1237      6.46%     12.58% |        1479      7.72%     20.30% |        1110      5.79%     26.10% |        1419      7.41%     33.51% |        1063      5.55%     39.05% |        1397      7.29%     46.35% |        1141      5.96%     52.30% |        1158      6.04%     58.35% |        1149      6.00%     64.34% |        1092      5.70%     70.04% |        1192      6.22%     76.27% |        1153      6.02%     82.28% |        1092      5.70%     87.98% |        1179      6.15%     94.14% |        1123      5.86%    100.00%
system.ruby.GPUL1Cache_Controller.Write_Ack::total        19158                      
system.ruby.GPUL1Cache_Controller.I.Load |       46605      6.52%      6.52% |       43828      6.13%     12.65% |       44670      6.25%     18.90% |       45922      6.43%     25.33% |       47803      6.69%     32.02% |       42953      6.01%     38.03% |       51228      7.17%     45.19% |       42100      5.89%     51.08% |       41750      5.84%     56.93% |       44083      6.17%     63.09% |       43094      6.03%     69.12% |       46904      6.56%     75.69% |       43769      6.12%     81.81% |       42332      5.92%     87.73% |       44581      6.24%     93.97% |       43091      6.03%    100.00%
system.ruby.GPUL1Cache_Controller.I.Load::total       714713                      
system.ruby.GPUL1Cache_Controller.I.Ifetch |          18      6.25%      6.25% |          18      6.25%     12.50% |          18      6.25%     18.75% |          18      6.25%     25.00% |          18      6.25%     31.25% |          18      6.25%     37.50% |          18      6.25%     43.75% |          18      6.25%     50.00% |          18      6.25%     56.25% |          18      6.25%     62.50% |          18      6.25%     68.75% |          18      6.25%     75.00% |          18      6.25%     81.25% |          18      6.25%     87.50% |          18      6.25%     93.75% |          18      6.25%    100.00%
system.ruby.GPUL1Cache_Controller.I.Ifetch::total          288                      
system.ruby.GPUL1Cache_Controller.I.Store |         960      5.92%      5.92% |         997      6.15%     12.06% |        1225      7.55%     19.61% |         965      5.95%     25.56% |        1243      7.66%     33.22% |         917      5.65%     38.87% |        1257      7.75%     46.62% |        1014      6.25%     52.87% |        1013      6.24%     59.12% |        1000      6.16%     65.28% |         934      5.76%     71.04% |        1014      6.25%     77.29% |         939      5.79%     83.07% |         878      5.41%     88.49% |         964      5.94%     94.43% |         904      5.57%    100.00%
system.ruby.GPUL1Cache_Controller.I.Store::total        16224                      
system.ruby.GPUL1Cache_Controller.V.Load |     9452367      6.37%      6.37% |     9569120      6.44%     12.81% |     9661059      6.51%     19.32% |     9173507      6.18%     25.50% |     9511061      6.41%     31.90% |     9204170      6.20%     38.10% |     9889332      6.66%     44.76% |     9084615      6.12%     50.88% |     9084070      6.12%     57.00% |     9113281      6.14%     63.13% |     9153100      6.16%     69.30% |     8987753      6.05%     75.35% |     8894981      5.99%     81.34% |     9105736      6.13%     87.48% |     9306436      6.27%     93.74% |     9290839      6.26%    100.00%
system.ruby.GPUL1Cache_Controller.V.Load::total    148481427                      
system.ruby.GPUL1Cache_Controller.V.Store |         214      7.29%      7.29% |         240      8.18%     15.47% |         254      8.66%     24.13% |         145      4.94%     29.07% |         176      6.00%     35.07% |         146      4.98%     40.05% |         140      4.77%     44.82% |         127      4.33%     49.15% |         145      4.94%     54.09% |         149      5.08%     59.17% |         158      5.39%     64.55% |         178      6.07%     70.62% |         214      7.29%     77.91% |         214      7.29%     85.21% |         215      7.33%     92.54% |         219      7.46%    100.00%
system.ruby.GPUL1Cache_Controller.V.Store::total         2934                      
system.ruby.GPUL1Cache_Controller.V.Replacement |       45903      6.52%      6.52% |       43094      6.12%     12.64% |       43926      6.24%     18.88% |       45283      6.43%     25.32% |       47133      6.70%     32.01% |       42317      6.01%     38.02% |       50594      7.19%     45.21% |       41479      5.89%     51.11% |       41113      5.84%     56.95% |       43440      6.17%     63.12% |       42442      6.03%     69.15% |       46232      6.57%     75.71% |       43061      6.12%     81.83% |       41624      5.91%     87.75% |       43877      6.23%     93.98% |       42380      6.02%    100.00%
system.ruby.GPUL1Cache_Controller.V.Replacement::total       703898                      
system.ruby.GPUL1Cache_Controller.IA.Write_Ack |        1174      6.13%      6.13% |        1237      6.46%     12.58% |        1479      7.72%     20.30% |        1110      5.79%     26.10% |        1419      7.41%     33.51% |        1063      5.55%     39.05% |        1397      7.29%     46.35% |        1141      5.96%     52.30% |        1158      6.04%     58.35% |        1149      6.00%     64.34% |        1092      5.70%     70.04% |        1192      6.22%     76.27% |        1153      6.02%     82.28% |        1092      5.70%     87.98% |        1179      6.15%     94.14% |        1123      5.86%    100.00%
system.ruby.GPUL1Cache_Controller.IA.Write_Ack::total        19158                      
system.ruby.GPUL1Cache_Controller.IV.Data |       46623      6.52%      6.52% |       43846      6.13%     12.65% |       44688      6.25%     18.90% |       45940      6.43%     25.33% |       47821      6.69%     32.02% |       42971      6.01%     38.03% |       51246      7.17%     45.19% |       42118      5.89%     51.08% |       41768      5.84%     56.93% |       44101      6.17%     63.09% |       43112      6.03%     69.12% |       46922      6.56%     75.69% |       43787      6.12%     81.81% |       42350      5.92%     87.73% |       44599      6.24%     93.97% |       43109      6.03%    100.00%
system.ruby.GPUL1Cache_Controller.IV.Data::total       715001                      
system.ruby.GPUL2Cache_Controller.Get          719266      0.00%      0.00%
system.ruby.GPUL2Cache_Controller.Store         19158      0.00%      0.00%
system.ruby.GPUL2Cache_Controller.Replacement        30028      0.00%      0.00%
system.ruby.GPUL2Cache_Controller.Other_GETX       210560      0.00%      0.00%
system.ruby.GPUL2Cache_Controller.Other_GETS       178949      0.00%      0.00%
system.ruby.GPUL2Cache_Controller.Ack           76438      0.00%      0.00%
system.ruby.GPUL2Cache_Controller.Exclusive_Data        38220      0.00%      0.00%
system.ruby.GPUL2Cache_Controller.Writeback_Ack        25946      0.00%      0.00%
system.ruby.GPUL2Cache_Controller.All_acks_no_sharers        38220      0.00%      0.00%
system.ruby.GPUL2Cache_Controller.I.Get         37480      0.00%      0.00%
system.ruby.GPUL2Cache_Controller.I.Store          740      0.00%      0.00%
system.ruby.GPUL2Cache_Controller.I.Replacement         4082      0.00%      0.00%
system.ruby.GPUL2Cache_Controller.I.Other_GETX       210554      0.00%      0.00%
system.ruby.GPUL2Cache_Controller.I.Other_GETS       167635      0.00%      0.00%
system.ruby.GPUL2Cache_Controller.O.Get             6      0.00%      0.00%
system.ruby.GPUL2Cache_Controller.O.Replacement         1803      0.00%      0.00%
system.ruby.GPUL2Cache_Controller.O.Other_GETX            6      0.00%      0.00%
system.ruby.GPUL2Cache_Controller.M.Get        676944      0.00%      0.00%
system.ruby.GPUL2Cache_Controller.M.Store        15325      0.00%      0.00%
system.ruby.GPUL2Cache_Controller.M.Replacement        14803      0.00%      0.00%
system.ruby.GPUL2Cache_Controller.M.Other_GETS         4589      0.00%      0.00%
system.ruby.GPUL2Cache_Controller.MM.Store         3093      0.00%      0.00%
system.ruby.GPUL2Cache_Controller.MM.Replacement         9340      0.00%      0.00%
system.ruby.GPUL2Cache_Controller.MM.Other_GETS         6725      0.00%      0.00%
system.ruby.GPUL2Cache_Controller.IM.Ack         1480      0.00%      0.00%
system.ruby.GPUL2Cache_Controller.IM.Exclusive_Data          740      0.00%      0.00%
system.ruby.GPUL2Cache_Controller.IS.Get         4265      0.00%      0.00%
system.ruby.GPUL2Cache_Controller.IS.Ack        74956      0.00%      0.00%
system.ruby.GPUL2Cache_Controller.IS.Exclusive_Data        37480      0.00%      0.00%
system.ruby.GPUL2Cache_Controller.OI.Writeback_Ack         1803      0.00%      0.00%
system.ruby.GPUL2Cache_Controller.MI.Writeback_Ack        24143      0.00%      0.00%
system.ruby.GPUL2Cache_Controller.M_W.Get          571      0.00%      0.00%
system.ruby.GPUL2Cache_Controller.M_W.Ack            2      0.00%      0.00%
system.ruby.GPUL2Cache_Controller.M_W.All_acks_no_sharers        37480      0.00%      0.00%
system.ruby.GPUL2Cache_Controller.MM_W.All_acks_no_sharers          740      0.00%      0.00%

---------- End Simulation Statistics   ----------
