
---------- Begin Simulation Statistics ----------
sim_seconds                                152.067851                       # Number of seconds simulated
sim_ticks                                152067850532500                       # Number of ticks simulated
final_tick                               152067850532500                       # Number of ticks from beginning of simulation (restored from checkpoints and never reset)
sim_freq                                 1000000000000                       # Frequency of simulated ticks
host_inst_rate                                 193570                       # Simulator instruction rate (inst/s)
host_op_rate                                   452808                       # Simulator op (including micro ops) rate (op/s)
host_tick_rate                            61553362421                       # Simulator tick rate (ticks/s)
host_mem_usage                                5225032                       # Number of bytes of host memory used
host_seconds                                  2470.50                       # Real time elapsed on the host
sim_insts                                   478214561                       # Number of instructions simulated
sim_ops                                    1118663867                       # Number of ops (including micro ops) simulated
system.voltage_domain.voltage                       1                       # Voltage in Volts
system.clk_domain.clock                          1000                       # Clock period in ticks
system.mem_ctrls.bytes_read::ruby.dir_cntrl0    112980864                       # Number of bytes read from this memory
system.mem_ctrls.bytes_read::total          112980864                       # Number of bytes read from this memory
system.mem_ctrls.bytes_written::ruby.dir_cntrl0    109046400                       # Number of bytes written to this memory
system.mem_ctrls.bytes_written::total       109046400                       # Number of bytes written to this memory
system.mem_ctrls.num_reads::ruby.dir_cntrl0       882663                       # Number of read requests responded to by this memory
system.mem_ctrls.num_reads::total              882663                       # Number of read requests responded to by this memory
system.mem_ctrls.num_writes::ruby.dir_cntrl0       851925                       # Number of write requests responded to by this memory
system.mem_ctrls.num_writes::total             851925                       # Number of write requests responded to by this memory
system.mem_ctrls.bw_read::ruby.dir_cntrl0       742964                       # Total read bandwidth from this memory (bytes/s)
system.mem_ctrls.bw_read::total                742964                       # Total read bandwidth from this memory (bytes/s)
system.mem_ctrls.bw_write::ruby.dir_cntrl0       717090                       # Write bandwidth from this memory (bytes/s)
system.mem_ctrls.bw_write::total               717090                       # Write bandwidth from this memory (bytes/s)
system.mem_ctrls.bw_total::ruby.dir_cntrl0      1460054                       # Total bandwidth to/from this memory (bytes/s)
system.mem_ctrls.bw_total::total              1460054                       # Total bandwidth to/from this memory (bytes/s)
system.mem_ctrls.readReqs                      882663                       # Number of read requests accepted
system.mem_ctrls.writeReqs                     851925                       # Number of write requests accepted
system.mem_ctrls.readBursts                   1765326                       # Number of DRAM read bursts, including those serviced by the write queue
system.mem_ctrls.writeBursts                  1703850                       # Number of DRAM write bursts, including those merged in the write queue
system.mem_ctrls.bytesReadDRAM              112916928                       # Total number of bytes read from DRAM
system.mem_ctrls.bytesReadWrQ                   63936                       # Total number of bytes read from write queue
system.mem_ctrls.bytesWritten               109045312                       # Total number of bytes written to DRAM
system.mem_ctrls.bytesReadSys               112980864                       # Total read bytes from the system interface side
system.mem_ctrls.bytesWrittenSys            109046400                       # Total written bytes from the system interface side
system.mem_ctrls.servicedByWrQ                    999                       # Number of DRAM read bursts serviced by the write queue
system.mem_ctrls.mergedWrBursts                     0                       # Number of DRAM write bursts merged with an existing one
system.mem_ctrls.neitherReadNorWriteReqs            0                       # Number of requests that are neither read nor write
system.mem_ctrls.perBankRdBursts::0            110847                       # Per bank write bursts
system.mem_ctrls.perBankRdBursts::1            110874                       # Per bank write bursts
system.mem_ctrls.perBankRdBursts::2            111869                       # Per bank write bursts
system.mem_ctrls.perBankRdBursts::3            110302                       # Per bank write bursts
system.mem_ctrls.perBankRdBursts::4            110956                       # Per bank write bursts
system.mem_ctrls.perBankRdBursts::5            111043                       # Per bank write bursts
system.mem_ctrls.perBankRdBursts::6            109658                       # Per bank write bursts
system.mem_ctrls.perBankRdBursts::7            108659                       # Per bank write bursts
system.mem_ctrls.perBankRdBursts::8            108570                       # Per bank write bursts
system.mem_ctrls.perBankRdBursts::9            109596                       # Per bank write bursts
system.mem_ctrls.perBankRdBursts::10           110638                       # Per bank write bursts
system.mem_ctrls.perBankRdBursts::11           110063                       # Per bank write bursts
system.mem_ctrls.perBankRdBursts::12           109282                       # Per bank write bursts
system.mem_ctrls.perBankRdBursts::13           109621                       # Per bank write bursts
system.mem_ctrls.perBankRdBursts::14           111230                       # Per bank write bursts
system.mem_ctrls.perBankRdBursts::15           111119                       # Per bank write bursts
system.mem_ctrls.perBankWrBursts::0            106504                       # Per bank write bursts
system.mem_ctrls.perBankWrBursts::1            106728                       # Per bank write bursts
system.mem_ctrls.perBankWrBursts::2            107220                       # Per bank write bursts
system.mem_ctrls.perBankWrBursts::3            106166                       # Per bank write bursts
system.mem_ctrls.perBankWrBursts::4            108132                       # Per bank write bursts
system.mem_ctrls.perBankWrBursts::5            106982                       # Per bank write bursts
system.mem_ctrls.perBankWrBursts::6            106858                       # Per bank write bursts
system.mem_ctrls.perBankWrBursts::7            106200                       # Per bank write bursts
system.mem_ctrls.perBankWrBursts::8            106058                       # Per bank write bursts
system.mem_ctrls.perBankWrBursts::9            106024                       # Per bank write bursts
system.mem_ctrls.perBankWrBursts::10           106290                       # Per bank write bursts
system.mem_ctrls.perBankWrBursts::11           105821                       # Per bank write bursts
system.mem_ctrls.perBankWrBursts::12           105632                       # Per bank write bursts
system.mem_ctrls.perBankWrBursts::13           105710                       # Per bank write bursts
system.mem_ctrls.perBankWrBursts::14           106628                       # Per bank write bursts
system.mem_ctrls.perBankWrBursts::15           106880                       # Per bank write bursts
system.mem_ctrls.numRdRetry                         0                       # Number of times read queue was full causing retry
system.mem_ctrls.numWrRetry                         0                       # Number of times write queue was full causing retry
system.mem_ctrls.totGap                  152067850373000                       # Total gap between requests
system.mem_ctrls.readPktSize::0                     0                       # Read request sizes (log2)
system.mem_ctrls.readPktSize::1                     0                       # Read request sizes (log2)
system.mem_ctrls.readPktSize::2                     0                       # Read request sizes (log2)
system.mem_ctrls.readPktSize::3                     0                       # Read request sizes (log2)
system.mem_ctrls.readPktSize::4                     0                       # Read request sizes (log2)
system.mem_ctrls.readPktSize::5                     0                       # Read request sizes (log2)
system.mem_ctrls.readPktSize::6               1765326                       # Read request sizes (log2)
system.mem_ctrls.writePktSize::0                    0                       # Write request sizes (log2)
system.mem_ctrls.writePktSize::1                    0                       # Write request sizes (log2)
system.mem_ctrls.writePktSize::2                    0                       # Write request sizes (log2)
system.mem_ctrls.writePktSize::3                    0                       # Write request sizes (log2)
system.mem_ctrls.writePktSize::4                    0                       # Write request sizes (log2)
system.mem_ctrls.writePktSize::5                    0                       # Write request sizes (log2)
system.mem_ctrls.writePktSize::6              1703850                       # Write request sizes (log2)
system.mem_ctrls.rdQLenPdf::0                  882170                       # What read queue length does an incoming req see
system.mem_ctrls.rdQLenPdf::1                  882129                       # What read queue length does an incoming req see
system.mem_ctrls.rdQLenPdf::2                      15                       # What read queue length does an incoming req see
system.mem_ctrls.rdQLenPdf::3                      13                       # What read queue length does an incoming req see
system.mem_ctrls.rdQLenPdf::4                       0                       # What read queue length does an incoming req see
system.mem_ctrls.rdQLenPdf::5                       0                       # What read queue length does an incoming req see
system.mem_ctrls.rdQLenPdf::6                       0                       # What read queue length does an incoming req see
system.mem_ctrls.rdQLenPdf::7                       0                       # What read queue length does an incoming req see
system.mem_ctrls.rdQLenPdf::8                       0                       # What read queue length does an incoming req see
system.mem_ctrls.rdQLenPdf::9                       0                       # What read queue length does an incoming req see
system.mem_ctrls.rdQLenPdf::10                      0                       # What read queue length does an incoming req see
system.mem_ctrls.rdQLenPdf::11                      0                       # What read queue length does an incoming req see
system.mem_ctrls.rdQLenPdf::12                      0                       # What read queue length does an incoming req see
system.mem_ctrls.rdQLenPdf::13                      0                       # What read queue length does an incoming req see
system.mem_ctrls.rdQLenPdf::14                      0                       # What read queue length does an incoming req see
system.mem_ctrls.rdQLenPdf::15                      0                       # What read queue length does an incoming req see
system.mem_ctrls.rdQLenPdf::16                      0                       # What read queue length does an incoming req see
system.mem_ctrls.rdQLenPdf::17                      0                       # What read queue length does an incoming req see
system.mem_ctrls.rdQLenPdf::18                      0                       # What read queue length does an incoming req see
system.mem_ctrls.rdQLenPdf::19                      0                       # What read queue length does an incoming req see
system.mem_ctrls.rdQLenPdf::20                      0                       # What read queue length does an incoming req see
system.mem_ctrls.rdQLenPdf::21                      0                       # What read queue length does an incoming req see
system.mem_ctrls.rdQLenPdf::22                      0                       # What read queue length does an incoming req see
system.mem_ctrls.rdQLenPdf::23                      0                       # What read queue length does an incoming req see
system.mem_ctrls.rdQLenPdf::24                      0                       # What read queue length does an incoming req see
system.mem_ctrls.rdQLenPdf::25                      0                       # What read queue length does an incoming req see
system.mem_ctrls.rdQLenPdf::26                      0                       # What read queue length does an incoming req see
system.mem_ctrls.rdQLenPdf::27                      0                       # What read queue length does an incoming req see
system.mem_ctrls.rdQLenPdf::28                      0                       # What read queue length does an incoming req see
system.mem_ctrls.rdQLenPdf::29                      0                       # What read queue length does an incoming req see
system.mem_ctrls.rdQLenPdf::30                      0                       # What read queue length does an incoming req see
system.mem_ctrls.rdQLenPdf::31                      0                       # What read queue length does an incoming req see
system.mem_ctrls.wrQLenPdf::0                       1                       # What write queue length does an incoming req see
system.mem_ctrls.wrQLenPdf::1                       1                       # What write queue length does an incoming req see
system.mem_ctrls.wrQLenPdf::2                       1                       # What write queue length does an incoming req see
system.mem_ctrls.wrQLenPdf::3                       1                       # What write queue length does an incoming req see
system.mem_ctrls.wrQLenPdf::4                       1                       # What write queue length does an incoming req see
system.mem_ctrls.wrQLenPdf::5                       1                       # What write queue length does an incoming req see
system.mem_ctrls.wrQLenPdf::6                       1                       # What write queue length does an incoming req see
system.mem_ctrls.wrQLenPdf::7                       1                       # What write queue length does an incoming req see
system.mem_ctrls.wrQLenPdf::8                       1                       # What write queue length does an incoming req see
system.mem_ctrls.wrQLenPdf::9                       1                       # What write queue length does an incoming req see
system.mem_ctrls.wrQLenPdf::10                      1                       # What write queue length does an incoming req see
system.mem_ctrls.wrQLenPdf::11                      1                       # What write queue length does an incoming req see
system.mem_ctrls.wrQLenPdf::12                      1                       # What write queue length does an incoming req see
system.mem_ctrls.wrQLenPdf::13                      1                       # What write queue length does an incoming req see
system.mem_ctrls.wrQLenPdf::14                      1                       # What write queue length does an incoming req see
system.mem_ctrls.wrQLenPdf::15                  85372                       # What write queue length does an incoming req see
system.mem_ctrls.wrQLenPdf::16                  89095                       # What write queue length does an incoming req see
system.mem_ctrls.wrQLenPdf::17                  95089                       # What write queue length does an incoming req see
system.mem_ctrls.wrQLenPdf::18                  94063                       # What write queue length does an incoming req see
system.mem_ctrls.wrQLenPdf::19                  97158                       # What write queue length does an incoming req see
system.mem_ctrls.wrQLenPdf::20                  98291                       # What write queue length does an incoming req see
system.mem_ctrls.wrQLenPdf::21                  96820                       # What write queue length does an incoming req see
system.mem_ctrls.wrQLenPdf::22                  95443                       # What write queue length does an incoming req see
system.mem_ctrls.wrQLenPdf::23                  95383                       # What write queue length does an incoming req see
system.mem_ctrls.wrQLenPdf::24                  95140                       # What write queue length does an incoming req see
system.mem_ctrls.wrQLenPdf::25                  95645                       # What write queue length does an incoming req see
system.mem_ctrls.wrQLenPdf::26                  95614                       # What write queue length does an incoming req see
system.mem_ctrls.wrQLenPdf::27                  94870                       # What write queue length does an incoming req see
system.mem_ctrls.wrQLenPdf::28                  94789                       # What write queue length does an incoming req see
system.mem_ctrls.wrQLenPdf::29                  94611                       # What write queue length does an incoming req see
system.mem_ctrls.wrQLenPdf::30                  94550                       # What write queue length does an incoming req see
system.mem_ctrls.wrQLenPdf::31                  94540                       # What write queue length does an incoming req see
system.mem_ctrls.wrQLenPdf::32                  94518                       # What write queue length does an incoming req see
system.mem_ctrls.wrQLenPdf::33                   2188                       # What write queue length does an incoming req see
system.mem_ctrls.wrQLenPdf::34                    197                       # What write queue length does an incoming req see
system.mem_ctrls.wrQLenPdf::35                    106                       # What write queue length does an incoming req see
system.mem_ctrls.wrQLenPdf::36                     96                       # What write queue length does an incoming req see
system.mem_ctrls.wrQLenPdf::37                     66                       # What write queue length does an incoming req see
system.mem_ctrls.wrQLenPdf::38                     58                       # What write queue length does an incoming req see
system.mem_ctrls.wrQLenPdf::39                     38                       # What write queue length does an incoming req see
system.mem_ctrls.wrQLenPdf::40                     35                       # What write queue length does an incoming req see
system.mem_ctrls.wrQLenPdf::41                     17                       # What write queue length does an incoming req see
system.mem_ctrls.wrQLenPdf::42                     15                       # What write queue length does an incoming req see
system.mem_ctrls.wrQLenPdf::43                     10                       # What write queue length does an incoming req see
system.mem_ctrls.wrQLenPdf::44                      9                       # What write queue length does an incoming req see
system.mem_ctrls.wrQLenPdf::45                      3                       # What write queue length does an incoming req see
system.mem_ctrls.wrQLenPdf::46                      3                       # What write queue length does an incoming req see
system.mem_ctrls.wrQLenPdf::47                      2                       # What write queue length does an incoming req see
system.mem_ctrls.wrQLenPdf::48                      1                       # What write queue length does an incoming req see
system.mem_ctrls.wrQLenPdf::49                      0                       # What write queue length does an incoming req see
system.mem_ctrls.wrQLenPdf::50                      0                       # What write queue length does an incoming req see
system.mem_ctrls.wrQLenPdf::51                      0                       # What write queue length does an incoming req see
system.mem_ctrls.wrQLenPdf::52                      0                       # What write queue length does an incoming req see
system.mem_ctrls.wrQLenPdf::53                      0                       # What write queue length does an incoming req see
system.mem_ctrls.wrQLenPdf::54                      0                       # What write queue length does an incoming req see
system.mem_ctrls.wrQLenPdf::55                      0                       # What write queue length does an incoming req see
system.mem_ctrls.wrQLenPdf::56                      0                       # What write queue length does an incoming req see
system.mem_ctrls.wrQLenPdf::57                      0                       # What write queue length does an incoming req see
system.mem_ctrls.wrQLenPdf::58                      0                       # What write queue length does an incoming req see
system.mem_ctrls.wrQLenPdf::59                      0                       # What write queue length does an incoming req see
system.mem_ctrls.wrQLenPdf::60                      0                       # What write queue length does an incoming req see
system.mem_ctrls.wrQLenPdf::61                      0                       # What write queue length does an incoming req see
system.mem_ctrls.wrQLenPdf::62                      0                       # What write queue length does an incoming req see
system.mem_ctrls.wrQLenPdf::63                      0                       # What write queue length does an incoming req see
system.mem_ctrls.bytesPerActivate::samples       372136                       # Bytes accessed per row activation
system.mem_ctrls.bytesPerActivate::mean    596.450158                       # Bytes accessed per row activation
system.mem_ctrls.bytesPerActivate::gmean   416.079739                       # Bytes accessed per row activation
system.mem_ctrls.bytesPerActivate::stdev   403.203550                       # Bytes accessed per row activation
system.mem_ctrls.bytesPerActivate::0-127        13372      3.59%      3.59% # Bytes accessed per row activation
system.mem_ctrls.bytesPerActivate::128-255       105325     28.30%     31.90% # Bytes accessed per row activation
system.mem_ctrls.bytesPerActivate::256-383        32494      8.73%     40.63% # Bytes accessed per row activation
system.mem_ctrls.bytesPerActivate::384-511        17394      4.67%     45.30% # Bytes accessed per row activation
system.mem_ctrls.bytesPerActivate::512-639        15841      4.26%     49.56% # Bytes accessed per row activation
system.mem_ctrls.bytesPerActivate::640-767        15437      4.15%     53.71% # Bytes accessed per row activation
system.mem_ctrls.bytesPerActivate::768-895         7160      1.92%     55.63% # Bytes accessed per row activation
system.mem_ctrls.bytesPerActivate::896-1023        11896      3.20%     58.83% # Bytes accessed per row activation
system.mem_ctrls.bytesPerActivate::1024-1151       153217     41.17%    100.00% # Bytes accessed per row activation
system.mem_ctrls.bytesPerActivate::total       372136                       # Bytes accessed per row activation
system.mem_ctrls.rdPerTurnAround::samples        94367                       # Reads before turning the bus around for writes
system.mem_ctrls.rdPerTurnAround::mean      18.696313                       # Reads before turning the bus around for writes
system.mem_ctrls.rdPerTurnAround::stdev     88.688873                       # Reads before turning the bus around for writes
system.mem_ctrls.rdPerTurnAround::0-1023        94365    100.00%    100.00% # Reads before turning the bus around for writes
system.mem_ctrls.rdPerTurnAround::2048-3071            1      0.00%    100.00% # Reads before turning the bus around for writes
system.mem_ctrls.rdPerTurnAround::26624-27647            1      0.00%    100.00% # Reads before turning the bus around for writes
system.mem_ctrls.rdPerTurnAround::total         94367                       # Reads before turning the bus around for writes
system.mem_ctrls.wrPerTurnAround::samples        94367                       # Writes before turning the bus around for reads
system.mem_ctrls.wrPerTurnAround::mean      18.055390                       # Writes before turning the bus around for reads
system.mem_ctrls.wrPerTurnAround::gmean     18.026080                       # Writes before turning the bus around for reads
system.mem_ctrls.wrPerTurnAround::stdev      1.169673                       # Writes before turning the bus around for reads
system.mem_ctrls.wrPerTurnAround::16             4395      4.66%      4.66% # Writes before turning the bus around for reads
system.mem_ctrls.wrPerTurnAround::17             1168      1.24%      5.90% # Writes before turning the bus around for reads
system.mem_ctrls.wrPerTurnAround::18            84809     89.87%     95.77% # Writes before turning the bus around for reads
system.mem_ctrls.wrPerTurnAround::19             1085      1.15%     96.92% # Writes before turning the bus around for reads
system.mem_ctrls.wrPerTurnAround::20             1120      1.19%     98.10% # Writes before turning the bus around for reads
system.mem_ctrls.wrPerTurnAround::21               36      0.04%     98.14% # Writes before turning the bus around for reads
system.mem_ctrls.wrPerTurnAround::22              598      0.63%     98.77% # Writes before turning the bus around for reads
system.mem_ctrls.wrPerTurnAround::23               25      0.03%     98.80% # Writes before turning the bus around for reads
system.mem_ctrls.wrPerTurnAround::24              635      0.67%     99.47% # Writes before turning the bus around for reads
system.mem_ctrls.wrPerTurnAround::25               10      0.01%     99.48% # Writes before turning the bus around for reads
system.mem_ctrls.wrPerTurnAround::26              126      0.13%     99.62% # Writes before turning the bus around for reads
system.mem_ctrls.wrPerTurnAround::27                8      0.01%     99.63% # Writes before turning the bus around for reads
system.mem_ctrls.wrPerTurnAround::28              270      0.29%     99.91% # Writes before turning the bus around for reads
system.mem_ctrls.wrPerTurnAround::29                1      0.00%     99.91% # Writes before turning the bus around for reads
system.mem_ctrls.wrPerTurnAround::30               17      0.02%     99.93% # Writes before turning the bus around for reads
system.mem_ctrls.wrPerTurnAround::31                3      0.00%     99.94% # Writes before turning the bus around for reads
system.mem_ctrls.wrPerTurnAround::32               15      0.02%     99.95% # Writes before turning the bus around for reads
system.mem_ctrls.wrPerTurnAround::33                1      0.00%     99.95% # Writes before turning the bus around for reads
system.mem_ctrls.wrPerTurnAround::34                8      0.01%     99.96% # Writes before turning the bus around for reads
system.mem_ctrls.wrPerTurnAround::36                7      0.01%     99.97% # Writes before turning the bus around for reads
system.mem_ctrls.wrPerTurnAround::38                5      0.01%     99.97% # Writes before turning the bus around for reads
system.mem_ctrls.wrPerTurnAround::40                1      0.00%     99.97% # Writes before turning the bus around for reads
system.mem_ctrls.wrPerTurnAround::41                1      0.00%     99.98% # Writes before turning the bus around for reads
system.mem_ctrls.wrPerTurnAround::42                5      0.01%     99.98% # Writes before turning the bus around for reads
system.mem_ctrls.wrPerTurnAround::44                5      0.01%     99.99% # Writes before turning the bus around for reads
system.mem_ctrls.wrPerTurnAround::46                2      0.00%     99.99% # Writes before turning the bus around for reads
system.mem_ctrls.wrPerTurnAround::48                3      0.00%     99.99% # Writes before turning the bus around for reads
system.mem_ctrls.wrPerTurnAround::52                3      0.00%     99.99% # Writes before turning the bus around for reads
system.mem_ctrls.wrPerTurnAround::56                2      0.00%    100.00% # Writes before turning the bus around for reads
system.mem_ctrls.wrPerTurnAround::57                1      0.00%    100.00% # Writes before turning the bus around for reads
system.mem_ctrls.wrPerTurnAround::60                2      0.00%    100.00% # Writes before turning the bus around for reads
system.mem_ctrls.wrPerTurnAround::total         94367                       # Writes before turning the bus around for reads
system.mem_ctrls.totQLat                  18573915750                       # Total ticks spent queuing
system.mem_ctrls.totMemAccLat             51655047000                       # Total ticks spent from burst creation until serviced by the DRAM
system.mem_ctrls.totBusLat                 8821635000                       # Total ticks spent in databus transfers
system.mem_ctrls.avgQLat                     10527.48                       # Average queueing delay per DRAM burst
system.mem_ctrls.avgBusLat                    5000.00                       # Average bus latency per DRAM burst
system.mem_ctrls.avgMemAccLat                29277.48                       # Average memory access latency per DRAM burst
system.mem_ctrls.avgRdBW                         0.74                       # Average DRAM read bandwidth in MiByte/s
system.mem_ctrls.avgWrBW                         0.72                       # Average achieved write bandwidth in MiByte/s
system.mem_ctrls.avgRdBWSys                      0.74                       # Average system read bandwidth in MiByte/s
system.mem_ctrls.avgWrBWSys                      0.72                       # Average system write bandwidth in MiByte/s
system.mem_ctrls.peakBW                      12800.00                       # Theoretical peak bandwidth in MiByte/s
system.mem_ctrls.busUtil                         0.01                       # Data bus utilization in percentage
system.mem_ctrls.busUtilRead                     0.01                       # Data bus utilization in percentage for reads
system.mem_ctrls.busUtilWrite                    0.01                       # Data bus utilization in percentage for writes
system.mem_ctrls.avgRdQLen                       2.00                       # Average read queue length when enqueuing
system.mem_ctrls.avgWrQLen                      24.60                       # Average write queue length when enqueuing
system.mem_ctrls.readRowHits                  1598061                       # Number of row buffer hits during reads
system.mem_ctrls.writeRowHits                 1497959                       # Number of row buffer hits during writes
system.mem_ctrls.readRowHitRate                 90.58                       # Row buffer hit rate for reads
system.mem_ctrls.writeRowHitRate                87.92                       # Row buffer hit rate for writes
system.mem_ctrls.avgGap                   87667994.00                       # Average gap between requests
system.mem_ctrls.pageHitRate                    89.27                       # Row buffer hit rate, read and write combined
system.mem_ctrls_0.actEnergy               1417628520                       # Energy for activate commands per rank (pJ)
system.mem_ctrls_0.preEnergy                773507625                       # Energy for precharge commands per rank (pJ)
system.mem_ctrls_0.readEnergy              6896713200                       # Energy for read commands per rank (pJ)
system.mem_ctrls_0.writeEnergy             5539039200                       # Energy for write commands per rank (pJ)
system.mem_ctrls_0.refreshEnergy         9932332419360                       # Energy for refresh commands per rank (pJ)
system.mem_ctrls_0.actBackEnergy         3471051696885                       # Energy for active background per rank (pJ)
system.mem_ctrls_0.preBackEnergy         88195925024250                       # Energy for precharge background per rank (pJ)
system.mem_ctrls_0.totalEnergy           101613936029040                       # Total energy per rank (pJ)
system.mem_ctrls_0.averagePower            668.214479                       # Core power per rank (mW)
system.mem_ctrls_0.memoryStateTime::IDLE 146723321632500                       # Time in different power states
system.mem_ctrls_0.memoryStateTime::REF  5077879560000                       # Time in different power states
system.mem_ctrls_0.memoryStateTime::PRE_PDN            0                       # Time in different power states
system.mem_ctrls_0.memoryStateTime::ACT  266644178250                       # Time in different power states
system.mem_ctrls_0.memoryStateTime::ACT_PDN            0                       # Time in different power states
system.mem_ctrls_1.actEnergy               1395704520                       # Energy for activate commands per rank (pJ)
system.mem_ctrls_1.preEnergy                761545125                       # Energy for precharge commands per rank (pJ)
system.mem_ctrls_1.readEnergy              6864928200                       # Energy for read commands per rank (pJ)
system.mem_ctrls_1.writeEnergy             5501682000                       # Energy for write commands per rank (pJ)
system.mem_ctrls_1.refreshEnergy         9932332419360                       # Energy for refresh commands per rank (pJ)
system.mem_ctrls_1.actBackEnergy         3467999082690                       # Energy for active background per rank (pJ)
system.mem_ctrls_1.preBackEnergy         88198602753000                       # Energy for precharge background per rank (pJ)
system.mem_ctrls_1.totalEnergy           101613458114895                       # Total energy per rank (pJ)
system.mem_ctrls_1.averagePower            668.211336                       # Core power per rank (mW)
system.mem_ctrls_1.memoryStateTime::IDLE 146727811365250                       # Time in different power states
system.mem_ctrls_1.memoryStateTime::REF  5077879560000                       # Time in different power states
system.mem_ctrls_1.memoryStateTime::PRE_PDN            0                       # Time in different power states
system.mem_ctrls_1.memoryStateTime::ACT  262155666750                       # Time in different power states
system.mem_ctrls_1.memoryStateTime::ACT_PDN            0                       # Time in different power states
system.ruby_clk_domain.clock                      500                       # Clock period in ticks
system.ruby.phys_mem.bytes_read::cpu.dtb.walker       449976                       # Number of bytes read from this memory
system.ruby.phys_mem.bytes_read::cpu.itb.walker       213592                       # Number of bytes read from this memory
system.ruby.phys_mem.bytes_read::cpu.inst   4980336024                       # Number of bytes read from this memory
system.ruby.phys_mem.bytes_read::cpu.data    767739048                       # Number of bytes read from this memory
system.ruby.phys_mem.bytes_read::pc.south_bridge.ide        43800                       # Number of bytes read from this memory
system.ruby.phys_mem.bytes_read::total     5748782440                       # Number of bytes read from this memory
system.ruby.phys_mem.bytes_inst_read::cpu.inst   4980336024                       # Number of instructions bytes read from this memory
system.ruby.phys_mem.bytes_inst_read::total   4980336024                       # Number of instructions bytes read from this memory
system.ruby.phys_mem.bytes_written::cpu.itb.walker           16                       # Number of bytes written to this memory
system.ruby.phys_mem.bytes_written::cpu.data    292991839                       # Number of bytes written to this memory
system.ruby.phys_mem.bytes_written::pc.south_bridge.ide      3196928                       # Number of bytes written to this memory
system.ruby.phys_mem.bytes_written::total    296188783                       # Number of bytes written to this memory
system.ruby.phys_mem.num_reads::cpu.dtb.walker        56247                       # Number of read requests responded to by this memory
system.ruby.phys_mem.num_reads::cpu.itb.walker        26699                       # Number of read requests responded to by this memory
system.ruby.phys_mem.num_reads::cpu.inst    622542003                       # Number of read requests responded to by this memory
system.ruby.phys_mem.num_reads::cpu.data    122416667                       # Number of read requests responded to by this memory
system.ruby.phys_mem.num_reads::pc.south_bridge.ide         1155                       # Number of read requests responded to by this memory
system.ruby.phys_mem.num_reads::total       745042771                       # Number of read requests responded to by this memory
system.ruby.phys_mem.num_writes::cpu.itb.walker            2                       # Number of write requests responded to by this memory
system.ruby.phys_mem.num_writes::cpu.data     72820343                       # Number of write requests responded to by this memory
system.ruby.phys_mem.num_writes::pc.south_bridge.ide        24976                       # Number of write requests responded to by this memory
system.ruby.phys_mem.num_writes::total       72845321                       # Number of write requests responded to by this memory
system.ruby.phys_mem.bw_read::cpu.dtb.walker         2959                       # Total read bandwidth from this memory (bytes/s)
system.ruby.phys_mem.bw_read::cpu.itb.walker         1405                       # Total read bandwidth from this memory (bytes/s)
system.ruby.phys_mem.bw_read::cpu.inst       32750749                       # Total read bandwidth from this memory (bytes/s)
system.ruby.phys_mem.bw_read::cpu.data        5048661                       # Total read bandwidth from this memory (bytes/s)
system.ruby.phys_mem.bw_read::pc.south_bridge.ide          288                       # Total read bandwidth from this memory (bytes/s)
system.ruby.phys_mem.bw_read::total          37804062                       # Total read bandwidth from this memory (bytes/s)
system.ruby.phys_mem.bw_inst_read::cpu.inst     32750749                       # Instruction read bandwidth from this memory (bytes/s)
system.ruby.phys_mem.bw_inst_read::total     32750749                       # Instruction read bandwidth from this memory (bytes/s)
system.ruby.phys_mem.bw_write::cpu.itb.walker            0                       # Write bandwidth from this memory (bytes/s)
system.ruby.phys_mem.bw_write::cpu.data       1926718                       # Write bandwidth from this memory (bytes/s)
system.ruby.phys_mem.bw_write::pc.south_bridge.ide        21023                       # Write bandwidth from this memory (bytes/s)
system.ruby.phys_mem.bw_write::total          1947741                       # Write bandwidth from this memory (bytes/s)
system.ruby.phys_mem.bw_total::cpu.dtb.walker         2959                       # Total bandwidth to/from this memory (bytes/s)
system.ruby.phys_mem.bw_total::cpu.itb.walker         1405                       # Total bandwidth to/from this memory (bytes/s)
system.ruby.phys_mem.bw_total::cpu.inst      32750749                       # Total bandwidth to/from this memory (bytes/s)
system.ruby.phys_mem.bw_total::cpu.data       6975379                       # Total bandwidth to/from this memory (bytes/s)
system.ruby.phys_mem.bw_total::pc.south_bridge.ide        21311                       # Total bandwidth to/from this memory (bytes/s)
system.ruby.phys_mem.bw_total::total         39751803                       # Total bandwidth to/from this memory (bytes/s)
system.cpu_voltage_domain.voltage                   1                       # Voltage in Volts
system.cpu_clk_domain.clock                       500                       # Clock period in ticks
system.cpu.apic_clk_domain.clock                 8000                       # Clock period in ticks
system.cpu.numCycles                     304135701065                       # number of cpu cycles simulated
system.cpu.numWorkItemsStarted                      0                       # number of work items this cpu started
system.cpu.numWorkItemsCompleted                    0                       # number of work items this cpu completed
system.cpu.committedInsts                   478214561                       # Number of instructions committed
system.cpu.committedOps                    1118663867                       # Number of ops (including micro ops) committed
system.cpu.num_int_alu_accesses            1043157174                       # Number of integer alu accesses
system.cpu.num_fp_alu_accesses                     48                       # Number of float alu accesses
system.cpu.num_func_calls                    19560496                       # number of times a function call or return occured
system.cpu.num_conditional_control_insts    139898856                       # number of instructions that are conditional controls
system.cpu.num_int_insts                   1043157174                       # number of integer instructions
system.cpu.num_fp_insts                            48                       # number of float instructions
system.cpu.num_int_register_reads          1916538758                       # number of times the integer registers were read
system.cpu.num_int_register_writes          842919838                       # number of times the integer registers were written
system.cpu.num_fp_register_reads                   48                       # number of times the floating registers were read
system.cpu.num_fp_register_writes                   0                       # number of times the floating registers were written
system.cpu.num_cc_register_reads            796764139                       # number of times the CC registers were read
system.cpu.num_cc_register_writes           374659406                       # number of times the CC registers were written
system.cpu.num_mem_refs                     195468255                       # number of memory refs
system.cpu.num_load_insts                   122583974                       # Number of load instructions
system.cpu.num_store_insts                   72884281                       # Number of store instructions
system.cpu.num_idle_cycles               301411464278.437988                       # Number of idle cycles
system.cpu.num_busy_cycles               2724236786.561982                       # Number of busy cycles
system.cpu.not_idle_fraction                 0.008957                       # Percentage of non-idle cycles
system.cpu.idle_fraction                     0.991043                       # Percentage of idle cycles
system.cpu.Branches                         165254402                       # Number of branches fetched
system.cpu.op_class::No_OpClass              42410694      3.79%      3.79% # Class of executed instruction
system.cpu.op_class::IntAlu                 879502460     78.62%     82.41% # Class of executed instruction
system.cpu.op_class::IntMult                  1189773      0.11%     82.52% # Class of executed instruction
system.cpu.op_class::IntDiv                     95267      0.01%     82.53% # Class of executed instruction
system.cpu.op_class::FloatAdd                       0      0.00%     82.53% # Class of executed instruction
system.cpu.op_class::FloatCmp                       0      0.00%     82.53% # Class of executed instruction
system.cpu.op_class::FloatCvt                      16      0.00%     82.53% # Class of executed instruction
system.cpu.op_class::FloatMult                      0      0.00%     82.53% # Class of executed instruction
system.cpu.op_class::FloatDiv                       0      0.00%     82.53% # Class of executed instruction
system.cpu.op_class::FloatSqrt                      0      0.00%     82.53% # Class of executed instruction
system.cpu.op_class::SimdAdd                        0      0.00%     82.53% # Class of executed instruction
system.cpu.op_class::SimdAddAcc                     0      0.00%     82.53% # Class of executed instruction
system.cpu.op_class::SimdAlu                        0      0.00%     82.53% # Class of executed instruction
system.cpu.op_class::SimdCmp                        0      0.00%     82.53% # Class of executed instruction
system.cpu.op_class::SimdCvt                        0      0.00%     82.53% # Class of executed instruction
system.cpu.op_class::SimdMisc                       0      0.00%     82.53% # Class of executed instruction
system.cpu.op_class::SimdMult                       0      0.00%     82.53% # Class of executed instruction
system.cpu.op_class::SimdMultAcc                    0      0.00%     82.53% # Class of executed instruction
system.cpu.op_class::SimdShift                      0      0.00%     82.53% # Class of executed instruction
system.cpu.op_class::SimdShiftAcc                   0      0.00%     82.53% # Class of executed instruction
system.cpu.op_class::SimdSqrt                       0      0.00%     82.53% # Class of executed instruction
system.cpu.op_class::SimdFloatAdd                   0      0.00%     82.53% # Class of executed instruction
system.cpu.op_class::SimdFloatAlu                   0      0.00%     82.53% # Class of executed instruction
system.cpu.op_class::SimdFloatCmp                   0      0.00%     82.53% # Class of executed instruction
system.cpu.op_class::SimdFloatCvt                   0      0.00%     82.53% # Class of executed instruction
system.cpu.op_class::SimdFloatDiv                   0      0.00%     82.53% # Class of executed instruction
system.cpu.op_class::SimdFloatMisc                  0      0.00%     82.53% # Class of executed instruction
system.cpu.op_class::SimdFloatMult                  0      0.00%     82.53% # Class of executed instruction
system.cpu.op_class::SimdFloatMultAcc               0      0.00%     82.53% # Class of executed instruction
system.cpu.op_class::SimdFloatSqrt                  0      0.00%     82.53% # Class of executed instruction
system.cpu.op_class::MemRead                122583974     10.96%     93.48% # Class of executed instruction
system.cpu.op_class::MemWrite                72884281      6.52%    100.00% # Class of executed instruction
system.cpu.op_class::IprAccess                      0      0.00%    100.00% # Class of executed instruction
system.cpu.op_class::InstPrefetch                   0      0.00%    100.00% # Class of executed instruction
system.cpu.op_class::total                 1118666465                       # Class of executed instruction
system.cpu.kern.inst.arm                            0                       # number of arm instructions executed
system.cpu.kern.inst.quiesce                     6175                       # number of quiesce instructions executed
system.gpu.clk_domain.voltage_domain.voltage            1                       # Voltage in Volts
system.gpu.clk_domain.clock                      1429                       # Clock period in ticks
system.gpu.dram_wrapper.clk_domain.clock          541                       # Clock period in ticks
system.gpu.icnt_wrapper.clk_domain.clock         2858                       # Clock period in ticks
system.ruby.outstanding_req_hist::bucket_size            1                      
system.ruby.outstanding_req_hist::max_bucket            9                      
system.ruby.outstanding_req_hist::samples    817861962                      
system.ruby.outstanding_req_hist::mean       1.000001                      
system.ruby.outstanding_req_hist::gmean      1.000000                      
system.ruby.outstanding_req_hist::stdev      0.000797                      
system.ruby.outstanding_req_hist         |           0      0.00%      0.00% |   817861443    100.00%    100.00% |         519      0.00%    100.00% |           0      0.00%    100.00% |           0      0.00%    100.00% |           0      0.00%    100.00% |           0      0.00%    100.00% |           0      0.00%    100.00% |           0      0.00%    100.00% |           0      0.00%    100.00%
system.ruby.outstanding_req_hist::total     817861962                      
system.ruby.latency_hist::bucket_size             128                      
system.ruby.latency_hist::max_bucket             1279                      
system.ruby.latency_hist::samples           817861961                      
system.ruby.latency_hist::mean               2.279422                      
system.ruby.latency_hist::gmean              2.051750                      
system.ruby.latency_hist::stdev              4.619125                      
system.ruby.latency_hist                 |   817682738     99.98%     99.98% |      155978      0.02%    100.00% |        8622      0.00%    100.00% |        1731      0.00%    100.00% |       11498      0.00%    100.00% |        1268      0.00%    100.00% |         109      0.00%    100.00% |          13      0.00%    100.00% |           4      0.00%    100.00% |           0      0.00%    100.00%
system.ruby.latency_hist::total             817861961                      
system.ruby.hit_latency_hist::bucket_size            2                      
system.ruby.hit_latency_hist::max_bucket           19                      
system.ruby.hit_latency_hist::samples       816980147                      
system.ruby.hit_latency_hist::mean           2.154617                      
system.ruby.hit_latency_hist::gmean          2.042920                      
system.ruby.hit_latency_hist::stdev          1.565235                      
system.ruby.hit_latency_hist             |           0      0.00%      0.00% |   809085220     99.03%     99.03% |           0      0.00%     99.03% |           0      0.00%     99.03% |           0      0.00%     99.03% |           0      0.00%     99.03% |           0      0.00%     99.03% |           0      0.00%     99.03% |           0      0.00%     99.03% |     7894927      0.97%    100.00%
system.ruby.hit_latency_hist::total         816980147                      
system.ruby.miss_latency_hist::bucket_size          128                      
system.ruby.miss_latency_hist::max_bucket         1279                      
system.ruby.miss_latency_hist::samples         881814                      
system.ruby.miss_latency_hist::mean        117.909013                      
system.ruby.miss_latency_hist::gmean       111.559413                      
system.ruby.miss_latency_hist::stdev        64.299888                      
system.ruby.miss_latency_hist            |      702591     79.68%     79.68% |      155978     17.69%     97.36% |        8622      0.98%     98.34% |        1731      0.20%     98.54% |       11498      1.30%     99.84% |        1268      0.14%     99.99% |         109      0.01%    100.00% |          13      0.00%    100.00% |           4      0.00%    100.00% |           0      0.00%    100.00%
system.ruby.miss_latency_hist::total           881814                      
system.gpu.shader_mmu.numPagefaults                 0                       # Number of Pagefaults
system.gpu.shader_mmu.numPagewalks                  0                       # Number of Pagewalks
system.gpu.shader_mmu.totalRequests                 0                       # Total number of requests
system.gpu.shader_mmu.retryFailures                 0                       # Times the retry walk after a pagefault failed
system.gpu.shader_mmu.l2hits                        0                       # Hits in the shared L2
system.gpu.shader_mmu.prefetchHits                  0                       # Number of prefetch hits
system.gpu.shader_mmu.numPrefetches                 0                       # Number of prefetchs
system.gpu.shader_mmu.prefetchFaults                0                       # Number of faults caused by prefetches
system.gpu.shader_mmu.pagefaultLatency::samples            0                       # Latency to complete the pagefault
system.gpu.shader_mmu.pagefaultLatency::mean          nan                       # Latency to complete the pagefault
system.gpu.shader_mmu.pagefaultLatency::gmean          nan                       # Latency to complete the pagefault
system.gpu.shader_mmu.pagefaultLatency::stdev          nan                       # Latency to complete the pagefault
system.gpu.shader_mmu.pagefaultLatency::0            0                       # Latency to complete the pagefault
system.gpu.shader_mmu.pagefaultLatency::1            0                       # Latency to complete the pagefault
system.gpu.shader_mmu.pagefaultLatency::2            0                       # Latency to complete the pagefault
system.gpu.shader_mmu.pagefaultLatency::3            0                       # Latency to complete the pagefault
system.gpu.shader_mmu.pagefaultLatency::4            0                       # Latency to complete the pagefault
system.gpu.shader_mmu.pagefaultLatency::5            0                       # Latency to complete the pagefault
system.gpu.shader_mmu.pagefaultLatency::6            0                       # Latency to complete the pagefault
system.gpu.shader_mmu.pagefaultLatency::7            0                       # Latency to complete the pagefault
system.gpu.shader_mmu.pagefaultLatency::8            0                       # Latency to complete the pagefault
system.gpu.shader_mmu.pagefaultLatency::9            0                       # Latency to complete the pagefault
system.gpu.shader_mmu.pagefaultLatency::10            0                       # Latency to complete the pagefault
system.gpu.shader_mmu.pagefaultLatency::11            0                       # Latency to complete the pagefault
system.gpu.shader_mmu.pagefaultLatency::12            0                       # Latency to complete the pagefault
system.gpu.shader_mmu.pagefaultLatency::13            0                       # Latency to complete the pagefault
system.gpu.shader_mmu.pagefaultLatency::14            0                       # Latency to complete the pagefault
system.gpu.shader_mmu.pagefaultLatency::15            0                       # Latency to complete the pagefault
system.gpu.shader_mmu.pagefaultLatency::16            0                       # Latency to complete the pagefault
system.gpu.shader_mmu.pagefaultLatency::17            0                       # Latency to complete the pagefault
system.gpu.shader_mmu.pagefaultLatency::18            0                       # Latency to complete the pagefault
system.gpu.shader_mmu.pagefaultLatency::19            0                       # Latency to complete the pagefault
system.gpu.shader_mmu.pagefaultLatency::20            0                       # Latency to complete the pagefault
system.gpu.shader_mmu.pagefaultLatency::21            0                       # Latency to complete the pagefault
system.gpu.shader_mmu.pagefaultLatency::22            0                       # Latency to complete the pagefault
system.gpu.shader_mmu.pagefaultLatency::23            0                       # Latency to complete the pagefault
system.gpu.shader_mmu.pagefaultLatency::24            0                       # Latency to complete the pagefault
system.gpu.shader_mmu.pagefaultLatency::25            0                       # Latency to complete the pagefault
system.gpu.shader_mmu.pagefaultLatency::26            0                       # Latency to complete the pagefault
system.gpu.shader_mmu.pagefaultLatency::27            0                       # Latency to complete the pagefault
system.gpu.shader_mmu.pagefaultLatency::28            0                       # Latency to complete the pagefault
system.gpu.shader_mmu.pagefaultLatency::29            0                       # Latency to complete the pagefault
system.gpu.shader_mmu.pagefaultLatency::30            0                       # Latency to complete the pagefault
system.gpu.shader_mmu.pagefaultLatency::31            0                       # Latency to complete the pagefault
system.gpu.shader_mmu.pagefaultLatency::total            0                       # Latency to complete the pagefault
system.gpu.shader_mmu.concurrentWalks::samples            0                       # Number of outstanding walks
system.gpu.shader_mmu.concurrentWalks::mean          nan                       # Number of outstanding walks
system.gpu.shader_mmu.concurrentWalks::gmean          nan                       # Number of outstanding walks
system.gpu.shader_mmu.concurrentWalks::stdev          nan                       # Number of outstanding walks
system.gpu.shader_mmu.concurrentWalks::0            0                       # Number of outstanding walks
system.gpu.shader_mmu.concurrentWalks::1            0                       # Number of outstanding walks
system.gpu.shader_mmu.concurrentWalks::2            0                       # Number of outstanding walks
system.gpu.shader_mmu.concurrentWalks::3            0                       # Number of outstanding walks
system.gpu.shader_mmu.concurrentWalks::4            0                       # Number of outstanding walks
system.gpu.shader_mmu.concurrentWalks::5            0                       # Number of outstanding walks
system.gpu.shader_mmu.concurrentWalks::6            0                       # Number of outstanding walks
system.gpu.shader_mmu.concurrentWalks::7            0                       # Number of outstanding walks
system.gpu.shader_mmu.concurrentWalks::8            0                       # Number of outstanding walks
system.gpu.shader_mmu.concurrentWalks::9            0                       # Number of outstanding walks
system.gpu.shader_mmu.concurrentWalks::10            0                       # Number of outstanding walks
system.gpu.shader_mmu.concurrentWalks::11            0                       # Number of outstanding walks
system.gpu.shader_mmu.concurrentWalks::12            0                       # Number of outstanding walks
system.gpu.shader_mmu.concurrentWalks::13            0                       # Number of outstanding walks
system.gpu.shader_mmu.concurrentWalks::14            0                       # Number of outstanding walks
system.gpu.shader_mmu.concurrentWalks::15            0                       # Number of outstanding walks
system.gpu.shader_mmu.concurrentWalks::total            0                       # Number of outstanding walks
system.gpu.shader_mmu.pagewalkLatency::samples            0                       # Latency to complete the pagewalk
system.gpu.shader_mmu.pagewalkLatency::mean          nan                       # Latency to complete the pagewalk
system.gpu.shader_mmu.pagewalkLatency::gmean          nan                       # Latency to complete the pagewalk
system.gpu.shader_mmu.pagewalkLatency::stdev          nan                       # Latency to complete the pagewalk
system.gpu.shader_mmu.pagewalkLatency::0            0                       # Latency to complete the pagewalk
system.gpu.shader_mmu.pagewalkLatency::1            0                       # Latency to complete the pagewalk
system.gpu.shader_mmu.pagewalkLatency::2            0                       # Latency to complete the pagewalk
system.gpu.shader_mmu.pagewalkLatency::3            0                       # Latency to complete the pagewalk
system.gpu.shader_mmu.pagewalkLatency::4            0                       # Latency to complete the pagewalk
system.gpu.shader_mmu.pagewalkLatency::5            0                       # Latency to complete the pagewalk
system.gpu.shader_mmu.pagewalkLatency::6            0                       # Latency to complete the pagewalk
system.gpu.shader_mmu.pagewalkLatency::7            0                       # Latency to complete the pagewalk
system.gpu.shader_mmu.pagewalkLatency::8            0                       # Latency to complete the pagewalk
system.gpu.shader_mmu.pagewalkLatency::9            0                       # Latency to complete the pagewalk
system.gpu.shader_mmu.pagewalkLatency::10            0                       # Latency to complete the pagewalk
system.gpu.shader_mmu.pagewalkLatency::11            0                       # Latency to complete the pagewalk
system.gpu.shader_mmu.pagewalkLatency::12            0                       # Latency to complete the pagewalk
system.gpu.shader_mmu.pagewalkLatency::13            0                       # Latency to complete the pagewalk
system.gpu.shader_mmu.pagewalkLatency::14            0                       # Latency to complete the pagewalk
system.gpu.shader_mmu.pagewalkLatency::15            0                       # Latency to complete the pagewalk
system.gpu.shader_mmu.pagewalkLatency::16            0                       # Latency to complete the pagewalk
system.gpu.shader_mmu.pagewalkLatency::17            0                       # Latency to complete the pagewalk
system.gpu.shader_mmu.pagewalkLatency::18            0                       # Latency to complete the pagewalk
system.gpu.shader_mmu.pagewalkLatency::19            0                       # Latency to complete the pagewalk
system.gpu.shader_mmu.pagewalkLatency::20            0                       # Latency to complete the pagewalk
system.gpu.shader_mmu.pagewalkLatency::21            0                       # Latency to complete the pagewalk
system.gpu.shader_mmu.pagewalkLatency::22            0                       # Latency to complete the pagewalk
system.gpu.shader_mmu.pagewalkLatency::23            0                       # Latency to complete the pagewalk
system.gpu.shader_mmu.pagewalkLatency::24            0                       # Latency to complete the pagewalk
system.gpu.shader_mmu.pagewalkLatency::25            0                       # Latency to complete the pagewalk
system.gpu.shader_mmu.pagewalkLatency::26            0                       # Latency to complete the pagewalk
system.gpu.shader_mmu.pagewalkLatency::27            0                       # Latency to complete the pagewalk
system.gpu.shader_mmu.pagewalkLatency::28            0                       # Latency to complete the pagewalk
system.gpu.shader_mmu.pagewalkLatency::29            0                       # Latency to complete the pagewalk
system.gpu.shader_mmu.pagewalkLatency::30            0                       # Latency to complete the pagewalk
system.gpu.shader_mmu.pagewalkLatency::31            0                       # Latency to complete the pagewalk
system.gpu.shader_mmu.pagewalkLatency::total            0                       # Latency to complete the pagewalk
system.gpu.kernels_started                          0                       # Number of kernels started
system.gpu.kernels_completed                        0                       # Number of kernels completed
system.gpu.ce.device_dtb.hits                       0                       # Number of hits in this TLB
system.gpu.ce.device_dtb.misses                     0                       # Number of misses in this TLB
system.gpu.ce.device_dtb.hitRate                  nan                       # Hit rate for this TLB
system.gpu.ce.host_dtb.hits                         0                       # Number of hits in this TLB
system.gpu.ce.host_dtb.misses                       0                       # Number of misses in this TLB
system.gpu.ce.host_dtb.hitRate                    nan                       # Hit rate for this TLB
system.gpu.shader_cores00.itb.hits                  0                       # Number of hits in this TLB
system.gpu.shader_cores00.itb.misses                0                       # Number of misses in this TLB
system.gpu.shader_cores00.itb.hitRate             nan                       # Hit rate for this TLB
system.gpu.shader_cores00.local_loads               0                       # Number of loads from local space
system.gpu.shader_cores00.local_stores              0                       # Number of stores to local space
system.gpu.shader_cores00.shared_loads              0                       # Number of loads from shared space
system.gpu.shader_cores00.shared_stores             0                       # Number of stores to shared space
system.gpu.shader_cores00.param_kernel_loads            0                       # Number of loads from kernel parameter space
system.gpu.shader_cores00.param_local_loads            0                       # Number of loads from local parameter space
system.gpu.shader_cores00.param_local_stores            0                       # Number of stores to local parameter space
system.gpu.shader_cores00.const_loads               0                       # Number of loads from constant space
system.gpu.shader_cores00.tex_loads                 0                       # Number of loads from texture space
system.gpu.shader_cores00.global_loads              0                       # Number of loads from global space
system.gpu.shader_cores00.global_stores             0                       # Number of stores to global space
system.gpu.shader_cores00.surf_loads                0                       # Number of loads from surface space
system.gpu.shader_cores00.generic_loads             0                       # Number of loads from generic spaces (global, shared, local)
system.gpu.shader_cores00.generic_stores            0                       # Number of stores to generic spaces (global, shared, local)
system.gpu.shader_cores00.inst_cache_requests            0                       # Number of instruction cache requests sent
system.gpu.shader_cores00.inst_cache_retries            0                       # Number of instruction cache retries
system.gpu.shader_cores00.inst_counts::0            0                       # Inst counts: 1: ALU, 2: MAD, 3: CTRL, 4: SFU, 5: MEM, 6: TEX, 7: NOP
system.gpu.shader_cores00.inst_counts::1            0                       # Inst counts: 1: ALU, 2: MAD, 3: CTRL, 4: SFU, 5: MEM, 6: TEX, 7: NOP
system.gpu.shader_cores00.inst_counts::2            0                       # Inst counts: 1: ALU, 2: MAD, 3: CTRL, 4: SFU, 5: MEM, 6: TEX, 7: NOP
system.gpu.shader_cores00.inst_counts::3            0                       # Inst counts: 1: ALU, 2: MAD, 3: CTRL, 4: SFU, 5: MEM, 6: TEX, 7: NOP
system.gpu.shader_cores00.inst_counts::4            0                       # Inst counts: 1: ALU, 2: MAD, 3: CTRL, 4: SFU, 5: MEM, 6: TEX, 7: NOP
system.gpu.shader_cores00.inst_counts::5            0                       # Inst counts: 1: ALU, 2: MAD, 3: CTRL, 4: SFU, 5: MEM, 6: TEX, 7: NOP
system.gpu.shader_cores00.inst_counts::6            0                       # Inst counts: 1: ALU, 2: MAD, 3: CTRL, 4: SFU, 5: MEM, 6: TEX, 7: NOP
system.gpu.shader_cores00.inst_counts::7            0                       # Inst counts: 1: ALU, 2: MAD, 3: CTRL, 4: SFU, 5: MEM, 6: TEX, 7: NOP
system.gpu.shader_cores00.activeCycles              0                       # Number of cycles this shader was executing a CTA
system.gpu.shader_cores00.notStalledCycles            0                       # Number of cycles this shader was actually executing at least one instance
system.gpu.shader_cores00.instInstances             0                       # Total instructions executed by all PEs in the core
system.gpu.shader_cores00.instPerCycle            nan                       # Instruction instances per cycle
system.gpu.shader_cores00.kernels_completed            0                       # Number of kernels completed
system.gpu.shader_cores00.lsq.data_tlb.hits            0                       # Number of hits in this TLB
system.gpu.shader_cores00.lsq.data_tlb.misses            0                       # Number of misses in this TLB
system.gpu.shader_cores00.lsq.data_tlb.hitRate          nan                       # Hit rate for this TLB
system.gpu.shader_cores00.lsq.warpInstBufActive::samples            0                       # Histogram of number of active warp inst buffers at a given time
system.gpu.shader_cores00.lsq.warpInstBufActive::mean          nan                       # Histogram of number of active warp inst buffers at a given time
system.gpu.shader_cores00.lsq.warpInstBufActive::gmean          nan                       # Histogram of number of active warp inst buffers at a given time
system.gpu.shader_cores00.lsq.warpInstBufActive::stdev          nan                       # Histogram of number of active warp inst buffers at a given time
system.gpu.shader_cores00.lsq.warpInstBufActive::0            0                       # Histogram of number of active warp inst buffers at a given time
system.gpu.shader_cores00.lsq.warpInstBufActive::1            0                       # Histogram of number of active warp inst buffers at a given time
system.gpu.shader_cores00.lsq.warpInstBufActive::2            0                       # Histogram of number of active warp inst buffers at a given time
system.gpu.shader_cores00.lsq.warpInstBufActive::3            0                       # Histogram of number of active warp inst buffers at a given time
system.gpu.shader_cores00.lsq.warpInstBufActive::4            0                       # Histogram of number of active warp inst buffers at a given time
system.gpu.shader_cores00.lsq.warpInstBufActive::5            0                       # Histogram of number of active warp inst buffers at a given time
system.gpu.shader_cores00.lsq.warpInstBufActive::6            0                       # Histogram of number of active warp inst buffers at a given time
system.gpu.shader_cores00.lsq.warpInstBufActive::7            0                       # Histogram of number of active warp inst buffers at a given time
system.gpu.shader_cores00.lsq.warpInstBufActive::8            0                       # Histogram of number of active warp inst buffers at a given time
system.gpu.shader_cores00.lsq.warpInstBufActive::9            0                       # Histogram of number of active warp inst buffers at a given time
system.gpu.shader_cores00.lsq.warpInstBufActive::10            0                       # Histogram of number of active warp inst buffers at a given time
system.gpu.shader_cores00.lsq.warpInstBufActive::11            0                       # Histogram of number of active warp inst buffers at a given time
system.gpu.shader_cores00.lsq.warpInstBufActive::12            0                       # Histogram of number of active warp inst buffers at a given time
system.gpu.shader_cores00.lsq.warpInstBufActive::13            0                       # Histogram of number of active warp inst buffers at a given time
system.gpu.shader_cores00.lsq.warpInstBufActive::14            0                       # Histogram of number of active warp inst buffers at a given time
system.gpu.shader_cores00.lsq.warpInstBufActive::15            0                       # Histogram of number of active warp inst buffers at a given time
system.gpu.shader_cores00.lsq.warpInstBufActive::16            0                       # Histogram of number of active warp inst buffers at a given time
system.gpu.shader_cores00.lsq.warpInstBufActive::17            0                       # Histogram of number of active warp inst buffers at a given time
system.gpu.shader_cores00.lsq.warpInstBufActive::18            0                       # Histogram of number of active warp inst buffers at a given time
system.gpu.shader_cores00.lsq.warpInstBufActive::19            0                       # Histogram of number of active warp inst buffers at a given time
system.gpu.shader_cores00.lsq.warpInstBufActive::20            0                       # Histogram of number of active warp inst buffers at a given time
system.gpu.shader_cores00.lsq.warpInstBufActive::21            0                       # Histogram of number of active warp inst buffers at a given time
system.gpu.shader_cores00.lsq.warpInstBufActive::22            0                       # Histogram of number of active warp inst buffers at a given time
system.gpu.shader_cores00.lsq.warpInstBufActive::23            0                       # Histogram of number of active warp inst buffers at a given time
system.gpu.shader_cores00.lsq.warpInstBufActive::24            0                       # Histogram of number of active warp inst buffers at a given time
system.gpu.shader_cores00.lsq.warpInstBufActive::25            0                       # Histogram of number of active warp inst buffers at a given time
system.gpu.shader_cores00.lsq.warpInstBufActive::26            0                       # Histogram of number of active warp inst buffers at a given time
system.gpu.shader_cores00.lsq.warpInstBufActive::27            0                       # Histogram of number of active warp inst buffers at a given time
system.gpu.shader_cores00.lsq.warpInstBufActive::28            0                       # Histogram of number of active warp inst buffers at a given time
system.gpu.shader_cores00.lsq.warpInstBufActive::29            0                       # Histogram of number of active warp inst buffers at a given time
system.gpu.shader_cores00.lsq.warpInstBufActive::30            0                       # Histogram of number of active warp inst buffers at a given time
system.gpu.shader_cores00.lsq.warpInstBufActive::31            0                       # Histogram of number of active warp inst buffers at a given time
system.gpu.shader_cores00.lsq.warpInstBufActive::32            0                       # Histogram of number of active warp inst buffers at a given time
system.gpu.shader_cores00.lsq.warpInstBufActive::33            0                       # Histogram of number of active warp inst buffers at a given time
system.gpu.shader_cores00.lsq.warpInstBufActive::34            0                       # Histogram of number of active warp inst buffers at a given time
system.gpu.shader_cores00.lsq.warpInstBufActive::35            0                       # Histogram of number of active warp inst buffers at a given time
system.gpu.shader_cores00.lsq.warpInstBufActive::36            0                       # Histogram of number of active warp inst buffers at a given time
system.gpu.shader_cores00.lsq.warpInstBufActive::37            0                       # Histogram of number of active warp inst buffers at a given time
system.gpu.shader_cores00.lsq.warpInstBufActive::38            0                       # Histogram of number of active warp inst buffers at a given time
system.gpu.shader_cores00.lsq.warpInstBufActive::39            0                       # Histogram of number of active warp inst buffers at a given time
system.gpu.shader_cores00.lsq.warpInstBufActive::40            0                       # Histogram of number of active warp inst buffers at a given time
system.gpu.shader_cores00.lsq.warpInstBufActive::41            0                       # Histogram of number of active warp inst buffers at a given time
system.gpu.shader_cores00.lsq.warpInstBufActive::42            0                       # Histogram of number of active warp inst buffers at a given time
system.gpu.shader_cores00.lsq.warpInstBufActive::43            0                       # Histogram of number of active warp inst buffers at a given time
system.gpu.shader_cores00.lsq.warpInstBufActive::44            0                       # Histogram of number of active warp inst buffers at a given time
system.gpu.shader_cores00.lsq.warpInstBufActive::45            0                       # Histogram of number of active warp inst buffers at a given time
system.gpu.shader_cores00.lsq.warpInstBufActive::46            0                       # Histogram of number of active warp inst buffers at a given time
system.gpu.shader_cores00.lsq.warpInstBufActive::47            0                       # Histogram of number of active warp inst buffers at a given time
system.gpu.shader_cores00.lsq.warpInstBufActive::48            0                       # Histogram of number of active warp inst buffers at a given time
system.gpu.shader_cores00.lsq.warpInstBufActive::49            0                       # Histogram of number of active warp inst buffers at a given time
system.gpu.shader_cores00.lsq.warpInstBufActive::50            0                       # Histogram of number of active warp inst buffers at a given time
system.gpu.shader_cores00.lsq.warpInstBufActive::51            0                       # Histogram of number of active warp inst buffers at a given time
system.gpu.shader_cores00.lsq.warpInstBufActive::52            0                       # Histogram of number of active warp inst buffers at a given time
system.gpu.shader_cores00.lsq.warpInstBufActive::53            0                       # Histogram of number of active warp inst buffers at a given time
system.gpu.shader_cores00.lsq.warpInstBufActive::54            0                       # Histogram of number of active warp inst buffers at a given time
system.gpu.shader_cores00.lsq.warpInstBufActive::55            0                       # Histogram of number of active warp inst buffers at a given time
system.gpu.shader_cores00.lsq.warpInstBufActive::56            0                       # Histogram of number of active warp inst buffers at a given time
system.gpu.shader_cores00.lsq.warpInstBufActive::57            0                       # Histogram of number of active warp inst buffers at a given time
system.gpu.shader_cores00.lsq.warpInstBufActive::58            0                       # Histogram of number of active warp inst buffers at a given time
system.gpu.shader_cores00.lsq.warpInstBufActive::59            0                       # Histogram of number of active warp inst buffers at a given time
system.gpu.shader_cores00.lsq.warpInstBufActive::60            0                       # Histogram of number of active warp inst buffers at a given time
system.gpu.shader_cores00.lsq.warpInstBufActive::61            0                       # Histogram of number of active warp inst buffers at a given time
system.gpu.shader_cores00.lsq.warpInstBufActive::62            0                       # Histogram of number of active warp inst buffers at a given time
system.gpu.shader_cores00.lsq.warpInstBufActive::63            0                       # Histogram of number of active warp inst buffers at a given time
system.gpu.shader_cores00.lsq.warpInstBufActive::64            0                       # Histogram of number of active warp inst buffers at a given time
system.gpu.shader_cores00.lsq.warpInstBufActive::total            0                       # Histogram of number of active warp inst buffers at a given time
system.gpu.shader_cores00.lsq.cacheAccesses            0                       # Average number of concurrent outstanding cache accesses
system.gpu.shader_cores00.lsq.writebackBlockedCycles            0                       # Number of cycles blocked for core writeback stage
system.gpu.shader_cores00.lsq.mshrHitQueued            0                       # Number of hits on blocked lines in MSHRs
system.gpu.shader_cores00.lsq.mshrsFullCycles            0                       # Number of cycles stalled waiting for an MSHR
system.gpu.shader_cores00.lsq.mshrsFullCount            0                       # Number of times MSHRs filled
system.gpu.shader_cores00.lsq.warpCoalescedAccesses::samples            0                       # Number of coalesced accesses per warp instruction
system.gpu.shader_cores00.lsq.warpCoalescedAccesses::mean          nan                       # Number of coalesced accesses per warp instruction
system.gpu.shader_cores00.lsq.warpCoalescedAccesses::gmean          nan                       # Number of coalesced accesses per warp instruction
system.gpu.shader_cores00.lsq.warpCoalescedAccesses::stdev          nan                       # Number of coalesced accesses per warp instruction
[...]
system.ruby.Directory_Controller.NO_DW_W.Memory_Ack        24976      0.00%      0.00%
system.ruby.Directory_Controller.WB.GETX           81      0.00%      0.00%
system.ruby.Directory_Controller.WB.GETS          171      0.00%      0.00%
system.ruby.Directory_Controller.WB.Writeback_Clean           17      0.00%      0.00%
system.ruby.Directory_Controller.WB.Writeback_Exclusive_Clean        37068      0.00%      0.00%
system.ruby.Directory_Controller.WB.Writeback_Exclusive_Dirty       826949      0.00%      0.00%
system.ruby.Directory_Controller.WB_E_W.Memory_Ack       826949      0.00%      0.00%
system.ruby.DMA_Controller.ReadRequest   |        1155    100.00%    100.00% |           0      0.00%    100.00%
system.ruby.DMA_Controller.ReadRequest::total         1155                      
system.ruby.DMA_Controller.WriteRequest  |       24976    100.00%    100.00% |           0      0.00%    100.00%
system.ruby.DMA_Controller.WriteRequest::total        24976                      
system.ruby.DMA_Controller.Data          |        1155    100.00%    100.00% |           0      0.00%    100.00%
system.ruby.DMA_Controller.Data::total           1155                      
system.ruby.DMA_Controller.Ack           |       24976    100.00%    100.00% |           0      0.00%    100.00%
system.ruby.DMA_Controller.Ack::total           24976                      
system.ruby.DMA_Controller.READY.ReadRequest |        1155    100.00%    100.00% |           0      0.00%    100.00%
system.ruby.DMA_Controller.READY.ReadRequest::total         1155                      
system.ruby.DMA_Controller.READY.WriteRequest |       24976    100.00%    100.00% |           0      0.00%    100.00%
system.ruby.DMA_Controller.READY.WriteRequest::total        24976                      
system.ruby.DMA_Controller.BUSY_RD.Data  |        1155    100.00%    100.00% |           0      0.00%    100.00%
system.ruby.DMA_Controller.BUSY_RD.Data::total         1155                      
system.ruby.DMA_Controller.BUSY_WR.Ack   |       24976    100.00%    100.00% |           0      0.00%    100.00%
system.ruby.DMA_Controller.BUSY_WR.Ack::total        24976                      
system.ruby.L1Cache_Controller.Load      |   117213632    100.00%    100.00% |           0      0.00%    100.00%
system.ruby.L1Cache_Controller.Load::total    117213632                      
system.ruby.L1Cache_Controller.Ifetch    |   622542032    100.00%    100.00% |           0      0.00%    100.00%
system.ruby.L1Cache_Controller.Ifetch::total    622542032                      
system.ruby.L1Cache_Controller.Store     |    78106549    100.00%    100.00% |           0      0.00%    100.00%
system.ruby.L1Cache_Controller.Store::total     78106549                      
system.ruby.L1Cache_Controller.L2_Replacement |      864523    100.00%    100.00% |           0      0.00%    100.00%
system.ruby.L1Cache_Controller.L2_Replacement::total       864523                      
system.ruby.L1Cache_Controller.L1_to_L2  |     8775971    100.00%    100.00% |           0      0.00%    100.00%
system.ruby.L1Cache_Controller.L1_to_L2::total      8775971                      
system.ruby.L1Cache_Controller.Trigger_L2_to_L1D |     6433944    100.00%    100.00% |           0      0.00%    100.00%
system.ruby.L1Cache_Controller.Trigger_L2_to_L1D::total      6433944                      
system.ruby.L1Cache_Controller.Trigger_L2_to_L1I |     1461815    100.00%    100.00% |           0      0.00%    100.00%
system.ruby.L1Cache_Controller.Trigger_L2_to_L1I::total      1461815                      
system.ruby.L1Cache_Controller.Complete_L2_to_L1 |     7895759    100.00%    100.00% |           0      0.00%    100.00%
system.ruby.L1Cache_Controller.Complete_L2_to_L1::total      7895759                      
system.ruby.L1Cache_Controller.Other_GETX |       24976      4.09%      4.09% |      585435     95.91%    100.00%
system.ruby.L1Cache_Controller.Other_GETX::total       610411                      
system.ruby.L1Cache_Controller.Other_GETS |        1155      0.36%      0.36% |      322510     99.64%    100.00%
system.ruby.L1Cache_Controller.Other_GETS::total       323665                      
system.ruby.L1Cache_Controller.Ack       |     1763628    100.00%    100.00% |           0      0.00%    100.00%
system.ruby.L1Cache_Controller.Ack::total      1763628                      
system.ruby.L1Cache_Controller.Data      |           6    100.00%    100.00% |           0      0.00%    100.00%
system.ruby.L1Cache_Controller.Data::total            6                      
system.ruby.L1Cache_Controller.Exclusive_Data |      881808    100.00%    100.00% |           0      0.00%    100.00%
system.ruby.L1Cache_Controller.Exclusive_Data::total       881808                      
system.ruby.L1Cache_Controller.Writeback_Ack |      864034    100.00%    100.00% |           0      0.00%    100.00%
system.ruby.L1Cache_Controller.Writeback_Ack::total       864034                      
system.ruby.L1Cache_Controller.All_acks_no_sharers |      881814    100.00%    100.00% |           0      0.00%    100.00%
system.ruby.L1Cache_Controller.All_acks_no_sharers::total       881814                      
system.ruby.L1Cache_Controller.I.Load    |      303496    100.00%    100.00% |           0      0.00%    100.00%
system.ruby.L1Cache_Controller.I.Load::total       303496                      
system.ruby.L1Cache_Controller.I.Ifetch  |       17273    100.00%    100.00% |           0      0.00%    100.00%
system.ruby.L1Cache_Controller.I.Ifetch::total        17273                      
system.ruby.L1Cache_Controller.I.Store   |      560213    100.00%    100.00% |           0      0.00%    100.00%
system.ruby.L1Cache_Controller.I.Store::total       560213                      
system.ruby.L1Cache_Controller.I.L2_Replacement |         484    100.00%    100.00% |           0      0.00%    100.00%
system.ruby.L1Cache_Controller.I.L2_Replacement::total          484                      
system.ruby.L1Cache_Controller.I.L1_to_L2 |         240    100.00%    100.00% |           0      0.00%    100.00%
system.ruby.L1Cache_Controller.I.L1_to_L2::total          240                      
system.ruby.L1Cache_Controller.I.Trigger_L2_to_L1D |         806    100.00%    100.00% |           0      0.00%    100.00%
system.ruby.L1Cache_Controller.I.Trigger_L2_to_L1D::total          806                      
system.ruby.L1Cache_Controller.I.Trigger_L2_to_L1I |          26    100.00%    100.00% |           0      0.00%    100.00%
system.ruby.L1Cache_Controller.I.Trigger_L2_to_L1I::total           26                      
system.ruby.L1Cache_Controller.I.Other_GETX |       23880      3.92%      3.92% |      585435     96.08%    100.00%
system.ruby.L1Cache_Controller.I.Other_GETX::total       609315                      
system.ruby.L1Cache_Controller.I.Other_GETS |         849      0.26%      0.26% |      322510     99.74%    100.00%
system.ruby.L1Cache_Controller.I.Other_GETS::total       323359                      
system.ruby.L1Cache_Controller.S.Load    |         267    100.00%    100.00% |           0      0.00%    100.00%
system.ruby.L1Cache_Controller.S.Load::total          267                      
system.ruby.L1Cache_Controller.S.L2_Replacement |           5    100.00%    100.00% |           0      0.00%    100.00%
system.ruby.L1Cache_Controller.S.L2_Replacement::total            5                      
system.ruby.L1Cache_Controller.S.L1_to_L2 |           8    100.00%    100.00% |           0      0.00%    100.00%
system.ruby.L1Cache_Controller.S.L1_to_L2::total            8                      
system.ruby.L1Cache_Controller.S.Trigger_L2_to_L1D |           2    100.00%    100.00% |           0      0.00%    100.00%
system.ruby.L1Cache_Controller.S.Trigger_L2_to_L1D::total            2                      
system.ruby.L1Cache_Controller.O.Load    |        1372    100.00%    100.00% |           0      0.00%    100.00%
system.ruby.L1Cache_Controller.O.Load::total         1372                      
system.ruby.L1Cache_Controller.O.L2_Replacement |          17    100.00%    100.00% |           0      0.00%    100.00%
system.ruby.L1Cache_Controller.O.L2_Replacement::total           17                      
system.ruby.L1Cache_Controller.O.L1_to_L2 |          24    100.00%    100.00% |           0      0.00%    100.00%
system.ruby.L1Cache_Controller.O.L1_to_L2::total           24                      
system.ruby.L1Cache_Controller.O.Trigger_L2_to_L1D |          24    100.00%    100.00% |           0      0.00%    100.00%
system.ruby.L1Cache_Controller.O.Trigger_L2_to_L1D::total           24                      
system.ruby.L1Cache_Controller.M.Load    |     8091760    100.00%    100.00% |           0      0.00%    100.00%
system.ruby.L1Cache_Controller.M.Load::total      8091760                      
system.ruby.L1Cache_Controller.M.Ifetch  |   614234039    100.00%    100.00% |           0      0.00%    100.00%
system.ruby.L1Cache_Controller.M.Ifetch::total    614234039                      
system.ruby.L1Cache_Controller.M.Store   |      271247    100.00%    100.00% |           0      0.00%    100.00%
system.ruby.L1Cache_Controller.M.Store::total       271247                      
system.ruby.L1Cache_Controller.M.L2_Replacement |       37068    100.00%    100.00% |           0      0.00%    100.00%
system.ruby.L1Cache_Controller.M.L2_Replacement::total        37068                      
system.ruby.L1Cache_Controller.M.L1_to_L2 |     1663689    100.00%    100.00% |           0      0.00%    100.00%
system.ruby.L1Cache_Controller.M.L1_to_L2::total      1663689                      
system.ruby.L1Cache_Controller.M.Trigger_L2_to_L1D |      220502    100.00%    100.00% |           0      0.00%    100.00%
system.ruby.L1Cache_Controller.M.Trigger_L2_to_L1D::total       220502                      
system.ruby.L1Cache_Controller.M.Trigger_L2_to_L1I |     1397231    100.00%    100.00% |           0      0.00%    100.00%
system.ruby.L1Cache_Controller.M.Trigger_L2_to_L1I::total      1397231                      
system.ruby.L1Cache_Controller.M.Other_GETX |          26    100.00%    100.00% |           0      0.00%    100.00%
system.ruby.L1Cache_Controller.M.Other_GETX::total           26                      
system.ruby.L1Cache_Controller.M.Other_GETS |          18    100.00%    100.00% |           0      0.00%    100.00%
system.ruby.L1Cache_Controller.M.Other_GETS::total           18                      
system.ruby.L1Cache_Controller.MM.Load   |   102592909    100.00%    100.00% |           0      0.00%    100.00%
system.ruby.L1Cache_Controller.MM.Load::total    102592909                      
system.ruby.L1Cache_Controller.MM.Ifetch |     6828855    100.00%    100.00% |           0      0.00%    100.00%
system.ruby.L1Cache_Controller.MM.Ifetch::total      6828855                      
system.ruby.L1Cache_Controller.MM.Store  |    77064523    100.00%    100.00% |           0      0.00%    100.00%
system.ruby.L1Cache_Controller.MM.Store::total     77064523                      
system.ruby.L1Cache_Controller.MM.L2_Replacement |      826949    100.00%    100.00% |           0      0.00%    100.00%
system.ruby.L1Cache_Controller.MM.L2_Replacement::total       826949                      
system.ruby.L1Cache_Controller.MM.L1_to_L2 |     7112010    100.00%    100.00% |           0      0.00%    100.00%
system.ruby.L1Cache_Controller.MM.L1_to_L2::total      7112010                      
system.ruby.L1Cache_Controller.MM.Trigger_L2_to_L1D |     6212610    100.00%    100.00% |           0      0.00%    100.00%
system.ruby.L1Cache_Controller.MM.Trigger_L2_to_L1D::total      6212610                      
system.ruby.L1Cache_Controller.MM.Trigger_L2_to_L1I |       64558    100.00%    100.00% |           0      0.00%    100.00%
system.ruby.L1Cache_Controller.MM.Trigger_L2_to_L1I::total        64558                      
system.ruby.L1Cache_Controller.MM.Other_GETX |        1070    100.00%    100.00% |           0      0.00%    100.00%
system.ruby.L1Cache_Controller.MM.Other_GETX::total         1070                      
system.ruby.L1Cache_Controller.MM.Other_GETS |         288    100.00%    100.00% |           0      0.00%    100.00%
system.ruby.L1Cache_Controller.MM.Other_GETS::total          288                      
system.ruby.L1Cache_Controller.IR.Load   |         560    100.00%    100.00% |           0      0.00%    100.00%
system.ruby.L1Cache_Controller.IR.Load::total          560                      
system.ruby.L1Cache_Controller.IR.Ifetch |          26    100.00%    100.00% |           0      0.00%    100.00%
system.ruby.L1Cache_Controller.IR.Ifetch::total           26                      
system.ruby.L1Cache_Controller.IR.Store  |         246    100.00%    100.00% |           0      0.00%    100.00%
system.ruby.L1Cache_Controller.IR.Store::total          246                      
system.ruby.L1Cache_Controller.SR.Load   |           2    100.00%    100.00% |           0      0.00%    100.00%
system.ruby.L1Cache_Controller.SR.Load::total            2                      
system.ruby.L1Cache_Controller.OR.Load   |          24    100.00%    100.00% |           0      0.00%    100.00%
system.ruby.L1Cache_Controller.OR.Load::total           24                      
system.ruby.L1Cache_Controller.MR.Load   |      216808    100.00%    100.00% |           0      0.00%    100.00%
system.ruby.L1Cache_Controller.MR.Load::total       216808                      
system.ruby.L1Cache_Controller.MR.Ifetch |     1397231    100.00%    100.00% |           0      0.00%    100.00%
system.ruby.L1Cache_Controller.MR.Ifetch::total      1397231                      
system.ruby.L1Cache_Controller.MR.Store  |        3694    100.00%    100.00% |           0      0.00%    100.00%
system.ruby.L1Cache_Controller.MR.Store::total         3694                      
system.ruby.L1Cache_Controller.MMR.Load  |     6006256    100.00%    100.00% |           0      0.00%    100.00%
system.ruby.L1Cache_Controller.MMR.Load::total      6006256                      
system.ruby.L1Cache_Controller.MMR.Ifetch |       64558    100.00%    100.00% |           0      0.00%    100.00%
system.ruby.L1Cache_Controller.MMR.Ifetch::total        64558                      
system.ruby.L1Cache_Controller.MMR.Store |      206354    100.00%    100.00% |           0      0.00%    100.00%
system.ruby.L1Cache_Controller.MMR.Store::total       206354                      
system.ruby.L1Cache_Controller.IM.Ack    |     1120773    100.00%    100.00% |           0      0.00%    100.00%
system.ruby.L1Cache_Controller.IM.Ack::total      1120773                      
system.ruby.L1Cache_Controller.IM.Exclusive_Data |      560459    100.00%    100.00% |           0      0.00%    100.00%
system.ruby.L1Cache_Controller.IM.Exclusive_Data::total       560459                      
system.ruby.L1Cache_Controller.M_W.Load  |          34    100.00%    100.00% |           0      0.00%    100.00%
system.ruby.L1Cache_Controller.M_W.Load::total           34                      
system.ruby.L1Cache_Controller.M_W.Ifetch |          21    100.00%    100.00% |           0      0.00%    100.00%
system.ruby.L1Cache_Controller.M_W.Ifetch::total           21                      
system.ruby.L1Cache_Controller.M_W.Store |           4    100.00%    100.00% |           0      0.00%    100.00%
system.ruby.L1Cache_Controller.M_W.Store::total            4                      
system.ruby.L1Cache_Controller.M_W.Ack   |         329    100.00%    100.00% |           0      0.00%    100.00%
system.ruby.L1Cache_Controller.M_W.Ack::total          329                      
system.ruby.L1Cache_Controller.M_W.All_acks_no_sharers |      321345    100.00%    100.00% |           0      0.00%    100.00%
system.ruby.L1Cache_Controller.M_W.All_acks_no_sharers::total       321345                      
system.ruby.L1Cache_Controller.MM_W.Load |           2    100.00%    100.00% |           0      0.00%    100.00%
system.ruby.L1Cache_Controller.MM_W.Load::total            2                      
system.ruby.L1Cache_Controller.MM_W.Store |         187    100.00%    100.00% |           0      0.00%    100.00%
system.ruby.L1Cache_Controller.MM_W.Store::total          187                      
system.ruby.L1Cache_Controller.MM_W.Ack  |         149    100.00%    100.00% |           0      0.00%    100.00%
system.ruby.L1Cache_Controller.MM_W.Ack::total          149                      
system.ruby.L1Cache_Controller.MM_W.All_acks_no_sharers |      560463    100.00%    100.00% |           0      0.00%    100.00%
system.ruby.L1Cache_Controller.MM_W.All_acks_no_sharers::total       560463                      
system.ruby.L1Cache_Controller.IS.Ack    |      642377    100.00%    100.00% |           0      0.00%    100.00%
system.ruby.L1Cache_Controller.IS.Ack::total       642377                      
system.ruby.L1Cache_Controller.IS.Data   |           6    100.00%    100.00% |           0      0.00%    100.00%
system.ruby.L1Cache_Controller.IS.Data::total            6                      
system.ruby.L1Cache_Controller.IS.Exclusive_Data |      321349    100.00%    100.00% |           0      0.00%    100.00%
system.ruby.L1Cache_Controller.IS.Exclusive_Data::total       321349                      
system.ruby.L1Cache_Controller.SS.All_acks_no_sharers |           6    100.00%    100.00% |           0      0.00%    100.00%
system.ruby.L1Cache_Controller.SS.All_acks_no_sharers::total            6                      
system.ruby.L1Cache_Controller.OI.Writeback_Ack |          17    100.00%    100.00% |           0      0.00%    100.00%
system.ruby.L1Cache_Controller.OI.Writeback_Ack::total           17                      
system.ruby.L1Cache_Controller.MI.Load   |         142    100.00%    100.00% |           0      0.00%    100.00%
system.ruby.L1Cache_Controller.MI.Load::total          142                      
system.ruby.L1Cache_Controller.MI.Ifetch |          29    100.00%    100.00% |           0      0.00%    100.00%
system.ruby.L1Cache_Controller.MI.Ifetch::total           29                      
system.ruby.L1Cache_Controller.MI.Store  |          81    100.00%    100.00% |           0      0.00%    100.00%
system.ruby.L1Cache_Controller.MI.Store::total           81                      
system.ruby.L1Cache_Controller.MI.Writeback_Ack |      864017    100.00%    100.00% |           0      0.00%    100.00%
system.ruby.L1Cache_Controller.MI.Writeback_Ack::total       864017                      
system.ruby.L1Cache_Controller.IT.Complete_L2_to_L1 |         832    100.00%    100.00% |           0      0.00%    100.00%
system.ruby.L1Cache_Controller.IT.Complete_L2_to_L1::total          832                      
system.ruby.L1Cache_Controller.ST.Complete_L2_to_L1 |           2    100.00%    100.00% |           0      0.00%    100.00%
system.ruby.L1Cache_Controller.ST.Complete_L2_to_L1::total            2                      
system.ruby.L1Cache_Controller.OT.Complete_L2_to_L1 |          24    100.00%    100.00% |           0      0.00%    100.00%
system.ruby.L1Cache_Controller.OT.Complete_L2_to_L1::total           24                      
system.ruby.L1Cache_Controller.MT.Complete_L2_to_L1 |     1617733    100.00%    100.00% |           0      0.00%    100.00%
system.ruby.L1Cache_Controller.MT.Complete_L2_to_L1::total      1617733                      
system.ruby.L1Cache_Controller.MMT.Complete_L2_to_L1 |     6277168    100.00%    100.00% |           0      0.00%    100.00%
system.ruby.L1Cache_Controller.MMT.Complete_L2_to_L1::total      6277168                      
system.ruby.GPUL2Cache_Controller.Other_GETX       585435      0.00%      0.00%
system.ruby.GPUL2Cache_Controller.Other_GETS       322510      0.00%      0.00%
system.ruby.GPUL2Cache_Controller.I.Other_GETX       585435      0.00%      0.00%
system.ruby.GPUL2Cache_Controller.I.Other_GETS       322510      0.00%      0.00%

---------- End Simulation Statistics   ----------
