
---------- Begin Simulation Statistics ----------
sim_seconds                                  0.011656                       # Number of seconds simulated
sim_ticks                                 11656360000                       # Number of ticks simulated
final_tick                                11656360000                       # Number of ticks from beginning of simulation (restored from checkpoints and never reset)
sim_freq                                 1000000000000                       # Frequency of simulated ticks
host_inst_rate                                   1174                       # Simulator instruction rate (inst/s)
host_op_rate                                     2014                       # Simulator op (including micro ops) rate (op/s)
host_tick_rate                                3680360                       # Simulator tick rate (ticks/s)
host_mem_usage                                4685608                       # Number of bytes of host memory used
host_seconds                                  3167.18                       # Real time elapsed on the host
sim_insts                                     3717133                       # Number of instructions simulated
sim_ops                                       6380256                       # Number of ops (including micro ops) simulated
system.voltage_domain.voltage                       1                       # Voltage in Volts
system.clk_domain.clock                          1000                       # Clock period in ticks
system.mem_ctrls.bytes_read::ruby.dir_cntrl0       425344                       # Number of bytes read from this memory
system.mem_ctrls.bytes_read::total             425344                       # Number of bytes read from this memory
system.mem_ctrls.bytes_written::ruby.dir_cntrl0       120832                       # Number of bytes written to this memory
system.mem_ctrls.bytes_written::total          120832                       # Number of bytes written to this memory
system.mem_ctrls.num_reads::ruby.dir_cntrl0         3323                       # Number of read requests responded to by this memory
system.mem_ctrls.num_reads::total                3323                       # Number of read requests responded to by this memory
system.mem_ctrls.num_writes::ruby.dir_cntrl0          944                       # Number of write requests responded to by this memory
system.mem_ctrls.num_writes::total                944                       # Number of write requests responded to by this memory
system.mem_ctrls.bw_read::ruby.dir_cntrl0     36490294                       # Total read bandwidth from this memory (bytes/s)
system.mem_ctrls.bw_read::total              36490294                       # Total read bandwidth from this memory (bytes/s)
system.mem_ctrls.bw_write::ruby.dir_cntrl0     10366186                       # Write bandwidth from this memory (bytes/s)
system.mem_ctrls.bw_write::total             10366186                       # Write bandwidth from this memory (bytes/s)
system.mem_ctrls.bw_total::ruby.dir_cntrl0     46856480                       # Total bandwidth to/from this memory (bytes/s)
system.mem_ctrls.bw_total::total             46856480                       # Total bandwidth to/from this memory (bytes/s)
system.mem_ctrls.readReqs                        3323                       # Number of read requests accepted
system.mem_ctrls.writeReqs                        944                       # Number of write requests accepted
system.mem_ctrls.readBursts                      6646                       # Number of DRAM read bursts, including those serviced by the write queue
system.mem_ctrls.writeBursts                     1888                       # Number of DRAM write bursts, including those merged in the write queue
system.mem_ctrls.bytesReadDRAM                 423296                       # Total number of bytes read from DRAM
system.mem_ctrls.bytesReadWrQ                    2048                       # Total number of bytes read from write queue
system.mem_ctrls.bytesWritten                  119872                       # Total number of bytes written to DRAM
system.mem_ctrls.bytesReadSys                  425344                       # Total read bytes from the system interface side
system.mem_ctrls.bytesWrittenSys               120832                       # Total written bytes from the system interface side
system.mem_ctrls.servicedByWrQ                     32                       # Number of DRAM read bursts serviced by the write queue
system.mem_ctrls.mergedWrBursts                     0                       # Number of DRAM write bursts merged with an existing one
system.mem_ctrls.neitherReadNorWriteReqs            0                       # Number of requests that are neither read nor write
system.mem_ctrls.perBankRdBursts::0               458                       # Per bank write bursts
system.mem_ctrls.perBankRdBursts::1               510                       # Per bank write bursts
system.mem_ctrls.perBankRdBursts::2               400                       # Per bank write bursts
system.mem_ctrls.perBankRdBursts::3               392                       # Per bank write bursts
system.mem_ctrls.perBankRdBursts::4               248                       # Per bank write bursts
system.mem_ctrls.perBankRdBursts::5               398                       # Per bank write bursts
system.mem_ctrls.perBankRdBursts::6               464                       # Per bank write bursts
system.mem_ctrls.perBankRdBursts::7               536                       # Per bank write bursts
system.mem_ctrls.perBankRdBursts::8               377                       # Per bank write bursts
system.mem_ctrls.perBankRdBursts::9               542                       # Per bank write bursts
system.mem_ctrls.perBankRdBursts::10              557                       # Per bank write bursts
system.mem_ctrls.perBankRdBursts::11              284                       # Per bank write bursts
system.mem_ctrls.perBankRdBursts::12              178                       # Per bank write bursts
system.mem_ctrls.perBankRdBursts::13              318                       # Per bank write bursts
system.mem_ctrls.perBankRdBursts::14              446                       # Per bank write bursts
system.mem_ctrls.perBankRdBursts::15              506                       # Per bank write bursts
system.mem_ctrls.perBankWrBursts::0                64                       # Per bank write bursts
system.mem_ctrls.perBankWrBursts::1                32                       # Per bank write bursts
system.mem_ctrls.perBankWrBursts::2               128                       # Per bank write bursts
system.mem_ctrls.perBankWrBursts::3               128                       # Per bank write bursts
system.mem_ctrls.perBankWrBursts::4               124                       # Per bank write bursts
system.mem_ctrls.perBankWrBursts::5               126                       # Per bank write bursts
system.mem_ctrls.perBankWrBursts::6               128                       # Per bank write bursts
system.mem_ctrls.perBankWrBursts::7               128                       # Per bank write bursts
system.mem_ctrls.perBankWrBursts::8               264                       # Per bank write bursts
system.mem_ctrls.perBankWrBursts::9               384                       # Per bank write bursts
system.mem_ctrls.perBankWrBursts::10              213                       # Per bank write bursts
system.mem_ctrls.perBankWrBursts::11                0                       # Per bank write bursts
system.mem_ctrls.perBankWrBursts::12                0                       # Per bank write bursts
system.mem_ctrls.perBankWrBursts::13                0                       # Per bank write bursts
system.mem_ctrls.perBankWrBursts::14               26                       # Per bank write bursts
system.mem_ctrls.perBankWrBursts::15              128                       # Per bank write bursts
system.mem_ctrls.numRdRetry                       232                       # Number of times read queue was full causing retry
system.mem_ctrls.numWrRetry                      1664                       # Number of times write queue was full causing retry
system.mem_ctrls.totGap                   11656072500                       # Total gap between requests
system.mem_ctrls.readPktSize::0                     0                       # Read request sizes (log2)
system.mem_ctrls.readPktSize::1                     0                       # Read request sizes (log2)
system.mem_ctrls.readPktSize::2                     0                       # Read request sizes (log2)
system.mem_ctrls.readPktSize::3                     0                       # Read request sizes (log2)
system.mem_ctrls.readPktSize::4                     0                       # Read request sizes (log2)
system.mem_ctrls.readPktSize::5                     0                       # Read request sizes (log2)
system.mem_ctrls.readPktSize::6                  6646                       # Read request sizes (log2)
system.mem_ctrls.writePktSize::0                    0                       # Write request sizes (log2)
system.mem_ctrls.writePktSize::1                    0                       # Write request sizes (log2)
system.mem_ctrls.writePktSize::2                    0                       # Write request sizes (log2)
system.mem_ctrls.writePktSize::3                    0                       # Write request sizes (log2)
system.mem_ctrls.writePktSize::4                    0                       # Write request sizes (log2)
system.mem_ctrls.writePktSize::5                    0                       # Write request sizes (log2)
system.mem_ctrls.writePktSize::6                 1888                       # Write request sizes (log2)
system.mem_ctrls.rdQLenPdf::0                    3171                       # What read queue length does an incoming req see
system.mem_ctrls.rdQLenPdf::1                    3169                       # What read queue length does an incoming req see
system.mem_ctrls.rdQLenPdf::2                       1                       # What read queue length does an incoming req see
system.mem_ctrls.rdQLenPdf::3                       1                       # What read queue length does an incoming req see
system.mem_ctrls.rdQLenPdf::4                       1                       # What read queue length does an incoming req see
system.mem_ctrls.rdQLenPdf::5                       1                       # What read queue length does an incoming req see
system.mem_ctrls.rdQLenPdf::6                       1                       # What read queue length does an incoming req see
system.mem_ctrls.rdQLenPdf::7                       1                       # What read queue length does an incoming req see
system.mem_ctrls.rdQLenPdf::8                       1                       # What read queue length does an incoming req see
system.mem_ctrls.rdQLenPdf::9                       1                       # What read queue length does an incoming req see
system.mem_ctrls.rdQLenPdf::10                      1                       # What read queue length does an incoming req see
system.mem_ctrls.rdQLenPdf::11                      2                       # What read queue length does an incoming req see
system.mem_ctrls.rdQLenPdf::12                      3                       # What read queue length does an incoming req see
system.mem_ctrls.rdQLenPdf::13                      2                       # What read queue length does an incoming req see
system.mem_ctrls.rdQLenPdf::14                      2                       # What read queue length does an incoming req see
system.mem_ctrls.rdQLenPdf::15                      2                       # What read queue length does an incoming req see
system.mem_ctrls.rdQLenPdf::16                      2                       # What read queue length does an incoming req see
system.mem_ctrls.rdQLenPdf::17                      2                       # What read queue length does an incoming req see
system.mem_ctrls.rdQLenPdf::18                      2                       # What read queue length does an incoming req see
system.mem_ctrls.rdQLenPdf::19                      4                       # What read queue length does an incoming req see
system.mem_ctrls.rdQLenPdf::20                      3                       # What read queue length does an incoming req see
system.mem_ctrls.rdQLenPdf::21                      1                       # What read queue length does an incoming req see
system.mem_ctrls.rdQLenPdf::22                      1                       # What read queue length does an incoming req see
system.mem_ctrls.rdQLenPdf::23                      1                       # What read queue length does an incoming req see
system.mem_ctrls.rdQLenPdf::24                      1                       # What read queue length does an incoming req see
system.mem_ctrls.rdQLenPdf::25                      1                       # What read queue length does an incoming req see
system.mem_ctrls.rdQLenPdf::26                      1                       # What read queue length does an incoming req see
system.mem_ctrls.rdQLenPdf::27                      1                       # What read queue length does an incoming req see
system.mem_ctrls.rdQLenPdf::28                      1                       # What read queue length does an incoming req see
system.mem_ctrls.rdQLenPdf::29                      1                       # What read queue length does an incoming req see
system.mem_ctrls.rdQLenPdf::30                    116                       # What read queue length does an incoming req see
system.mem_ctrls.rdQLenPdf::31                    116                       # What read queue length does an incoming req see
system.mem_ctrls.wrQLenPdf::0                       1                       # What write queue length does an incoming req see
system.mem_ctrls.wrQLenPdf::1                       1                       # What write queue length does an incoming req see
system.mem_ctrls.wrQLenPdf::2                       1                       # What write queue length does an incoming req see
system.mem_ctrls.wrQLenPdf::3                       1                       # What write queue length does an incoming req see
system.mem_ctrls.wrQLenPdf::4                       1                       # What write queue length does an incoming req see
system.mem_ctrls.wrQLenPdf::5                       1                       # What write queue length does an incoming req see
system.mem_ctrls.wrQLenPdf::6                       1                       # What write queue length does an incoming req see
system.mem_ctrls.wrQLenPdf::7                       1                       # What write queue length does an incoming req see
system.mem_ctrls.wrQLenPdf::8                       1                       # What write queue length does an incoming req see
system.mem_ctrls.wrQLenPdf::9                       1                       # What write queue length does an incoming req see
system.mem_ctrls.wrQLenPdf::10                      1                       # What write queue length does an incoming req see
system.mem_ctrls.wrQLenPdf::11                      1                       # What write queue length does an incoming req see
system.mem_ctrls.wrQLenPdf::12                      1                       # What write queue length does an incoming req see
system.mem_ctrls.wrQLenPdf::13                      1                       # What write queue length does an incoming req see
system.mem_ctrls.wrQLenPdf::14                      1                       # What write queue length does an incoming req see
system.mem_ctrls.wrQLenPdf::15                      3                       # What write queue length does an incoming req see
system.mem_ctrls.wrQLenPdf::16                      3                       # What write queue length does an incoming req see
system.mem_ctrls.wrQLenPdf::17                      3                       # What write queue length does an incoming req see
system.mem_ctrls.wrQLenPdf::18                      3                       # What write queue length does an incoming req see
system.mem_ctrls.wrQLenPdf::19                      3                       # What write queue length does an incoming req see
system.mem_ctrls.wrQLenPdf::20                      4                       # What write queue length does an incoming req see
system.mem_ctrls.wrQLenPdf::21                      4                       # What write queue length does an incoming req see
system.mem_ctrls.wrQLenPdf::22                      4                       # What write queue length does an incoming req see
system.mem_ctrls.wrQLenPdf::23                      4                       # What write queue length does an incoming req see
system.mem_ctrls.wrQLenPdf::24                      4                       # What write queue length does an incoming req see
system.mem_ctrls.wrQLenPdf::25                      4                       # What write queue length does an incoming req see
system.mem_ctrls.wrQLenPdf::26                      6                       # What write queue length does an incoming req see
system.mem_ctrls.wrQLenPdf::27                     10                       # What write queue length does an incoming req see
system.mem_ctrls.wrQLenPdf::28                     11                       # What write queue length does an incoming req see
system.mem_ctrls.wrQLenPdf::29                      8                       # What write queue length does an incoming req see
system.mem_ctrls.wrQLenPdf::30                      6                       # What write queue length does an incoming req see
system.mem_ctrls.wrQLenPdf::31                      6                       # What write queue length does an incoming req see
system.mem_ctrls.wrQLenPdf::32                      7                       # What write queue length does an incoming req see
system.mem_ctrls.wrQLenPdf::33                      4                       # What write queue length does an incoming req see
system.mem_ctrls.wrQLenPdf::34                      3                       # What write queue length does an incoming req see
system.mem_ctrls.wrQLenPdf::35                      3                       # What write queue length does an incoming req see
system.mem_ctrls.wrQLenPdf::36                      3                       # What write queue length does an incoming req see
system.mem_ctrls.wrQLenPdf::37                      5                       # What write queue length does an incoming req see
system.mem_ctrls.wrQLenPdf::38                      5                       # What write queue length does an incoming req see
system.mem_ctrls.wrQLenPdf::39                      5                       # What write queue length does an incoming req see
system.mem_ctrls.wrQLenPdf::40                      4                       # What write queue length does an incoming req see
system.mem_ctrls.wrQLenPdf::41                      4                       # What write queue length does an incoming req see
system.mem_ctrls.wrQLenPdf::42                      4                       # What write queue length does an incoming req see
system.mem_ctrls.wrQLenPdf::43                      3                       # What write queue length does an incoming req see
system.mem_ctrls.wrQLenPdf::44                      4                       # What write queue length does an incoming req see
system.mem_ctrls.wrQLenPdf::45                      3                       # What write queue length does an incoming req see
system.mem_ctrls.wrQLenPdf::46                      3                       # What write queue length does an incoming req see
system.mem_ctrls.wrQLenPdf::47                      5                       # What write queue length does an incoming req see
system.mem_ctrls.wrQLenPdf::48                      3                       # What write queue length does an incoming req see
system.mem_ctrls.wrQLenPdf::49                      3                       # What write queue length does an incoming req see
system.mem_ctrls.wrQLenPdf::50                      4                       # What write queue length does an incoming req see
system.mem_ctrls.wrQLenPdf::51                      3                       # What write queue length does an incoming req see
system.mem_ctrls.wrQLenPdf::52                      3                       # What write queue length does an incoming req see
system.mem_ctrls.wrQLenPdf::53                      4                       # What write queue length does an incoming req see
system.mem_ctrls.wrQLenPdf::54                      4                       # What write queue length does an incoming req see
system.mem_ctrls.wrQLenPdf::55                      3                       # What write queue length does an incoming req see
system.mem_ctrls.wrQLenPdf::56                      3                       # What write queue length does an incoming req see
system.mem_ctrls.wrQLenPdf::57                      4                       # What write queue length does an incoming req see
system.mem_ctrls.wrQLenPdf::58                      3                       # What write queue length does an incoming req see
system.mem_ctrls.wrQLenPdf::59                      3                       # What write queue length does an incoming req see
system.mem_ctrls.wrQLenPdf::60                      4                       # What write queue length does an incoming req see
system.mem_ctrls.wrQLenPdf::61                      3                       # What write queue length does an incoming req see
system.mem_ctrls.wrQLenPdf::62                    838                       # What write queue length does an incoming req see
system.mem_ctrls.wrQLenPdf::63                    837                       # What write queue length does an incoming req see
system.mem_ctrls.bytesPerActivate::samples         1648                       # Bytes accessed per row activation
system.mem_ctrls.bytesPerActivate::mean    329.514563                       # Bytes accessed per row activation
system.mem_ctrls.bytesPerActivate::gmean   234.102509                       # Bytes accessed per row activation
system.mem_ctrls.bytesPerActivate::stdev   305.624200                       # Bytes accessed per row activation
system.mem_ctrls.bytesPerActivate::0-127            3      0.18%      0.18% # Bytes accessed per row activation
system.mem_ctrls.bytesPerActivate::128-255          927     56.25%     56.43% # Bytes accessed per row activation
system.mem_ctrls.bytesPerActivate::256-383          189     11.47%     67.90% # Bytes accessed per row activation
system.mem_ctrls.bytesPerActivate::384-511          123      7.46%     75.36% # Bytes accessed per row activation
system.mem_ctrls.bytesPerActivate::512-639          113      6.86%     82.22% # Bytes accessed per row activation
system.mem_ctrls.bytesPerActivate::640-767           62      3.76%     85.98% # Bytes accessed per row activation
system.mem_ctrls.bytesPerActivate::768-895           16      0.97%     86.95% # Bytes accessed per row activation
system.mem_ctrls.bytesPerActivate::896-1023           12      0.73%     87.68% # Bytes accessed per row activation
system.mem_ctrls.bytesPerActivate::1024-1151          203     12.32%    100.00% # Bytes accessed per row activation
system.mem_ctrls.bytesPerActivate::total         1648                       # Bytes accessed per row activation
system.mem_ctrls.rdPerTurnAround::samples            4                       # Reads before turning the bus around for writes
system.mem_ctrls.rdPerTurnAround::mean    1299.750000                       # Reads before turning the bus around for writes
system.mem_ctrls.rdPerTurnAround::gmean     94.428056                       # Reads before turning the bus around for writes
system.mem_ctrls.rdPerTurnAround::stdev   1846.622209                       # Reads before turning the bus around for writes
system.mem_ctrls.rdPerTurnAround::0-127             2     50.00%     50.00% # Reads before turning the bus around for writes
system.mem_ctrls.rdPerTurnAround::1152-1279            1     25.00%     75.00% # Reads before turning the bus around for writes
system.mem_ctrls.rdPerTurnAround::3840-3967            1     25.00%    100.00% # Reads before turning the bus around for writes
system.mem_ctrls.rdPerTurnAround::total             4                       # Reads before turning the bus around for writes
system.mem_ctrls.wrPerTurnAround::samples            4                       # Writes before turning the bus around for reads
system.mem_ctrls.wrPerTurnAround::mean     468.250000                       # Writes before turning the bus around for reads
system.mem_ctrls.wrPerTurnAround::gmean    287.038601                       # Writes before turning the bus around for reads
system.mem_ctrls.wrPerTurnAround::stdev    328.426933                       # Writes before turning the bus around for reads
system.mem_ctrls.wrPerTurnAround::32-47             1     25.00%     25.00% # Writes before turning the bus around for reads
system.mem_ctrls.wrPerTurnAround::480-495            1     25.00%     50.00% # Writes before turning the bus around for reads
system.mem_ctrls.wrPerTurnAround::512-527            1     25.00%     75.00% # Writes before turning the bus around for reads
system.mem_ctrls.wrPerTurnAround::816-831            1     25.00%    100.00% # Writes before turning the bus around for reads
system.mem_ctrls.wrPerTurnAround::total             4                       # Writes before turning the bus around for reads
system.mem_ctrls.totQLat                    128186986                       # Total ticks spent queuing
system.mem_ctrls.totMemAccLat               252199486                       # Total ticks spent from burst creation until serviced by the DRAM
system.mem_ctrls.totBusLat                   33070000                       # Total ticks spent in databus transfers
system.mem_ctrls.avgQLat                     19381.16                       # Average queueing delay per DRAM burst
system.mem_ctrls.avgBusLat                    5000.00                       # Average bus latency per DRAM burst
system.mem_ctrls.avgMemAccLat                38131.16                       # Average memory access latency per DRAM burst
system.mem_ctrls.avgRdBW                        36.31                       # Average DRAM read bandwidth in MiByte/s
system.mem_ctrls.avgWrBW                        10.28                       # Average achieved write bandwidth in MiByte/s
system.mem_ctrls.avgRdBWSys                     36.49                       # Average system read bandwidth in MiByte/s
system.mem_ctrls.avgWrBWSys                     10.37                       # Average system write bandwidth in MiByte/s
system.mem_ctrls.peakBW                      12800.00                       # Theoretical peak bandwidth in MiByte/s
system.mem_ctrls.busUtil                         0.36                       # Data bus utilization in percentage
system.mem_ctrls.busUtilRead                     0.28                       # Data bus utilization in percentage for reads
system.mem_ctrls.busUtilWrite                    0.08                       # Data bus utilization in percentage for writes
system.mem_ctrls.avgRdQLen                       2.00                       # Average read queue length when enqueuing
system.mem_ctrls.avgWrQLen                      25.71                       # Average write queue length when enqueuing
system.mem_ctrls.readRowHits                     5091                       # Number of row buffer hits during reads
system.mem_ctrls.writeRowHits                    1747                       # Number of row buffer hits during writes
system.mem_ctrls.readRowHitRate                 76.97                       # Row buffer hit rate for reads
system.mem_ctrls.writeRowHitRate                92.53                       # Row buffer hit rate for writes
system.mem_ctrls.avgGap                    2731678.58                       # Average gap between requests
system.mem_ctrls.pageHitRate                    80.43                       # Row buffer hit rate, read and write combined
system.mem_ctrls_0.actEnergy                  7219800                       # Energy for activate commands per rank (pJ)
system.mem_ctrls_0.preEnergy                  3939375                       # Energy for precharge commands per rank (pJ)
system.mem_ctrls_0.readEnergy                26551200                       # Energy for read commands per rank (pJ)
system.mem_ctrls_0.writeEnergy                5559840                       # Energy for write commands per rank (pJ)
system.mem_ctrls_0.refreshEnergy            761314320                       # Energy for refresh commands per rank (pJ)
system.mem_ctrls_0.actBackEnergy           1749825045                       # Energy for active background per rank (pJ)
system.mem_ctrls_0.preBackEnergy           5458831500                       # Energy for precharge background per rank (pJ)
system.mem_ctrls_0.totalEnergy             8013241080                       # Total energy per rank (pJ)
system.mem_ctrls_0.averagePower            687.461494                       # Core power per rank (mW)
system.mem_ctrls_0.memoryStateTime::IDLE   9070009250                       # Time in different power states
system.mem_ctrls_0.memoryStateTime::REF     389220000                       # Time in different power states
system.mem_ctrls_0.memoryStateTime::PRE_PDN            0                       # Time in different power states
system.mem_ctrls_0.memoryStateTime::ACT    2197060750                       # Time in different power states
system.mem_ctrls_0.memoryStateTime::ACT_PDN            0                       # Time in different power states
system.mem_ctrls_1.actEnergy                  5239080                       # Energy for activate commands per rank (pJ)
system.mem_ctrls_1.preEnergy                  2858625                       # Energy for precharge commands per rank (pJ)
system.mem_ctrls_1.readEnergy                25022400                       # Energy for read commands per rank (pJ)
system.mem_ctrls_1.writeEnergy                6577200                       # Energy for write commands per rank (pJ)
system.mem_ctrls_1.refreshEnergy            761314320                       # Energy for refresh commands per rank (pJ)
system.mem_ctrls_1.actBackEnergy           1249799670                       # Energy for active background per rank (pJ)
system.mem_ctrls_1.preBackEnergy           5897450250                       # Energy for precharge background per rank (pJ)
system.mem_ctrls_1.totalEnergy             7948261545                       # Total energy per rank (pJ)
system.mem_ctrls_1.averagePower            681.886854                       # Core power per rank (mW)
system.mem_ctrls_1.memoryStateTime::IDLE   9804265000                       # Time in different power states
system.mem_ctrls_1.memoryStateTime::REF     389220000                       # Time in different power states
system.mem_ctrls_1.memoryStateTime::PRE_PDN            0                       # Time in different power states
system.mem_ctrls_1.memoryStateTime::ACT    1462805000                       # Time in different power states
system.mem_ctrls_1.memoryStateTime::ACT_PDN            0                       # Time in different power states
system.ruby_clk_domain.clock                      500                       # Clock period in ticks
system.ruby.phys_mem.bytes_read::cpu.inst     39942160                       # Number of bytes read from this memory
system.ruby.phys_mem.bytes_read::cpu.data      5569085                       # Number of bytes read from this memory
system.ruby.phys_mem.bytes_read::gpu.ce         60048                       # Number of bytes read from this memory
system.ruby.phys_mem.bytes_read::gpu.shader_cores00.data     58618208                       # Number of bytes read from this memory
system.ruby.phys_mem.bytes_read::gpu.shader_cores00.inst           96                       # Number of bytes read from this memory
system.ruby.phys_mem.bytes_read::gpu.shader_cores01.data     42419680                       # Number of bytes read from this memory
system.ruby.phys_mem.bytes_read::gpu.shader_cores01.inst           96                       # Number of bytes read from this memory
system.ruby.phys_mem.bytes_read::gpu.shader_cores02.data     53186816                       # Number of bytes read from this memory
system.ruby.phys_mem.bytes_read::gpu.shader_cores02.inst           96                       # Number of bytes read from this memory
system.ruby.phys_mem.bytes_read::gpu.shader_cores03.data     68238336                       # Number of bytes read from this memory
system.ruby.phys_mem.bytes_read::gpu.shader_cores03.inst           96                       # Number of bytes read from this memory
system.ruby.phys_mem.bytes_read::gpu.shader_cores04.data     78523744                       # Number of bytes read from this memory
system.ruby.phys_mem.bytes_read::gpu.shader_cores04.inst           96                       # Number of bytes read from this memory
system.ruby.phys_mem.bytes_read::gpu.shader_cores05.data     83903008                       # Number of bytes read from this memory
system.ruby.phys_mem.bytes_read::gpu.shader_cores05.inst           96                       # Number of bytes read from this memory
system.ruby.phys_mem.bytes_read::gpu.shader_cores06.data     93789024                       # Number of bytes read from this memory
system.ruby.phys_mem.bytes_read::gpu.shader_cores06.inst           96                       # Number of bytes read from this memory
system.ruby.phys_mem.bytes_read::gpu.shader_cores07.data     98163424                       # Number of bytes read from this memory
system.ruby.phys_mem.bytes_read::gpu.shader_cores07.inst           96                       # Number of bytes read from this memory
system.ruby.phys_mem.bytes_read::gpu.shader_cores08.data     96637600                       # Number of bytes read from this memory
system.ruby.phys_mem.bytes_read::gpu.shader_cores08.inst           96                       # Number of bytes read from this memory
system.ruby.phys_mem.bytes_read::gpu.shader_cores09.data    100436864                       # Number of bytes read from this memory
system.ruby.phys_mem.bytes_read::gpu.shader_cores09.inst           96                       # Number of bytes read from this memory
system.ruby.phys_mem.bytes_read::gpu.shader_cores10.data    102712448                       # Number of bytes read from this memory
system.ruby.phys_mem.bytes_read::gpu.shader_cores10.inst           96                       # Number of bytes read from this memory
system.ruby.phys_mem.bytes_read::gpu.shader_cores11.data     99360512                       # Number of bytes read from this memory
system.ruby.phys_mem.bytes_read::gpu.shader_cores11.inst           96                       # Number of bytes read from this memory
system.ruby.phys_mem.bytes_read::gpu.shader_cores12.data     96290560                       # Number of bytes read from this memory
system.ruby.phys_mem.bytes_read::gpu.shader_cores12.inst           96                       # Number of bytes read from this memory
system.ruby.phys_mem.bytes_read::gpu.shader_cores13.data     90211136                       # Number of bytes read from this memory
system.ruby.phys_mem.bytes_read::gpu.shader_cores13.inst           96                       # Number of bytes read from this memory
system.ruby.phys_mem.bytes_read::gpu.shader_cores14.data     79498688                       # Number of bytes read from this memory
system.ruby.phys_mem.bytes_read::gpu.shader_cores14.inst           96                       # Number of bytes read from this memory
system.ruby.phys_mem.bytes_read::gpu.shader_cores15.data     68655968                       # Number of bytes read from this memory
system.ruby.phys_mem.bytes_read::gpu.shader_cores15.inst           96                       # Number of bytes read from this memory
system.ruby.phys_mem.bytes_read::total     1356218845                       # Number of bytes read from this memory
system.ruby.phys_mem.bytes_inst_read::cpu.inst     39942160                       # Number of instructions bytes read from this memory
system.ruby.phys_mem.bytes_inst_read::gpu.shader_cores00.inst           96                       # Number of instructions bytes read from this memory
system.ruby.phys_mem.bytes_inst_read::gpu.shader_cores01.inst           96                       # Number of instructions bytes read from this memory
system.ruby.phys_mem.bytes_inst_read::gpu.shader_cores02.inst           96                       # Number of instructions bytes read from this memory
system.ruby.phys_mem.bytes_inst_read::gpu.shader_cores03.inst           96                       # Number of instructions bytes read from this memory
system.ruby.phys_mem.bytes_inst_read::gpu.shader_cores04.inst           96                       # Number of instructions bytes read from this memory
system.ruby.phys_mem.bytes_inst_read::gpu.shader_cores05.inst           96                       # Number of instructions bytes read from this memory
system.ruby.phys_mem.bytes_inst_read::gpu.shader_cores06.inst           96                       # Number of instructions bytes read from this memory
system.ruby.phys_mem.bytes_inst_read::gpu.shader_cores07.inst           96                       # Number of instructions bytes read from this memory
system.ruby.phys_mem.bytes_inst_read::gpu.shader_cores08.inst           96                       # Number of instructions bytes read from this memory
system.ruby.phys_mem.bytes_inst_read::gpu.shader_cores09.inst           96                       # Number of instructions bytes read from this memory
system.ruby.phys_mem.bytes_inst_read::gpu.shader_cores10.inst           96                       # Number of instructions bytes read from this memory
system.ruby.phys_mem.bytes_inst_read::gpu.shader_cores11.inst           96                       # Number of instructions bytes read from this memory
system.ruby.phys_mem.bytes_inst_read::gpu.shader_cores12.inst           96                       # Number of instructions bytes read from this memory
system.ruby.phys_mem.bytes_inst_read::gpu.shader_cores13.inst           96                       # Number of instructions bytes read from this memory
system.ruby.phys_mem.bytes_inst_read::gpu.shader_cores14.inst           96                       # Number of instructions bytes read from this memory
system.ruby.phys_mem.bytes_inst_read::gpu.shader_cores15.inst           96                       # Number of instructions bytes read from this memory
system.ruby.phys_mem.bytes_inst_read::total     39943696                       # Number of instructions bytes read from this memory
system.ruby.phys_mem.bytes_written::cpu.data      2131178                       # Number of bytes written to this memory
system.ruby.phys_mem.bytes_written::gpu.ce        60048                       # Number of bytes written to this memory
system.ruby.phys_mem.bytes_written::gpu.shader_cores00.data         1024                       # Number of bytes written to this memory
system.ruby.phys_mem.bytes_written::gpu.shader_cores01.data         1024                       # Number of bytes written to this memory
system.ruby.phys_mem.bytes_written::gpu.shader_cores02.data         1024                       # Number of bytes written to this memory
system.ruby.phys_mem.bytes_written::gpu.shader_cores03.data         1024                       # Number of bytes written to this memory
system.ruby.phys_mem.bytes_written::gpu.shader_cores04.data         1024                       # Number of bytes written to this memory
system.ruby.phys_mem.bytes_written::gpu.shader_cores05.data         1024                       # Number of bytes written to this memory
system.ruby.phys_mem.bytes_written::gpu.shader_cores06.data         1024                       # Number of bytes written to this memory
system.ruby.phys_mem.bytes_written::gpu.shader_cores07.data         1024                       # Number of bytes written to this memory
system.ruby.phys_mem.bytes_written::gpu.shader_cores08.data         1024                       # Number of bytes written to this memory
system.ruby.phys_mem.bytes_written::gpu.shader_cores09.data         1024                       # Number of bytes written to this memory
system.ruby.phys_mem.bytes_written::gpu.shader_cores10.data         1024                       # Number of bytes written to this memory
system.ruby.phys_mem.bytes_written::gpu.shader_cores11.data         1024                       # Number of bytes written to this memory
system.ruby.phys_mem.bytes_written::gpu.shader_cores12.data         1024                       # Number of bytes written to this memory
system.ruby.phys_mem.bytes_written::gpu.shader_cores13.data         1024                       # Number of bytes written to this memory
system.ruby.phys_mem.bytes_written::gpu.shader_cores14.data         1024                       # Number of bytes written to this memory
system.ruby.phys_mem.bytes_written::gpu.shader_cores15.data         1024                       # Number of bytes written to this memory
system.ruby.phys_mem.bytes_written::total      2207610                       # Number of bytes written to this memory
system.ruby.phys_mem.num_reads::cpu.inst      4992770                       # Number of read requests responded to by this memory
system.ruby.phys_mem.num_reads::cpu.data       986358                       # Number of read requests responded to by this memory
system.ruby.phys_mem.num_reads::gpu.ce            473                       # Number of read requests responded to by this memory
system.ruby.phys_mem.num_reads::gpu.shader_cores00.data      1003269                       # Number of read requests responded to by this memory
system.ruby.phys_mem.num_reads::gpu.shader_cores00.inst            6                       # Number of read requests responded to by this memory
system.ruby.phys_mem.num_reads::gpu.shader_cores01.data       783183                       # Number of read requests responded to by this memory
system.ruby.phys_mem.num_reads::gpu.shader_cores01.inst            6                       # Number of read requests responded to by this memory
system.ruby.phys_mem.num_reads::gpu.shader_cores02.data       965615                       # Number of read requests responded to by this memory
system.ruby.phys_mem.num_reads::gpu.shader_cores02.inst            6                       # Number of read requests responded to by this memory
system.ruby.phys_mem.num_reads::gpu.shader_cores03.data      1169663                       # Number of read requests responded to by this memory
system.ruby.phys_mem.num_reads::gpu.shader_cores03.inst            6                       # Number of read requests responded to by this memory
system.ruby.phys_mem.num_reads::gpu.shader_cores04.data      1369531                       # Number of read requests responded to by this memory
system.ruby.phys_mem.num_reads::gpu.shader_cores04.inst            6                       # Number of read requests responded to by this memory
system.ruby.phys_mem.num_reads::gpu.shader_cores05.data      1522309                       # Number of read requests responded to by this memory
system.ruby.phys_mem.num_reads::gpu.shader_cores05.inst            6                       # Number of read requests responded to by this memory
system.ruby.phys_mem.num_reads::gpu.shader_cores06.data      1637122                       # Number of read requests responded to by this memory
system.ruby.phys_mem.num_reads::gpu.shader_cores06.inst            6                       # Number of read requests responded to by this memory
system.ruby.phys_mem.num_reads::gpu.shader_cores07.data      1673395                       # Number of read requests responded to by this memory
system.ruby.phys_mem.num_reads::gpu.shader_cores07.inst            6                       # Number of read requests responded to by this memory
system.ruby.phys_mem.num_reads::gpu.shader_cores08.data      1670956                       # Number of read requests responded to by this memory
system.ruby.phys_mem.num_reads::gpu.shader_cores08.inst            6                       # Number of read requests responded to by this memory
system.ruby.phys_mem.num_reads::gpu.shader_cores09.data      1705623                       # Number of read requests responded to by this memory
system.ruby.phys_mem.num_reads::gpu.shader_cores09.inst            6                       # Number of read requests responded to by this memory
system.ruby.phys_mem.num_reads::gpu.shader_cores10.data      1701334                       # Number of read requests responded to by this memory
system.ruby.phys_mem.num_reads::gpu.shader_cores10.inst            6                       # Number of read requests responded to by this memory
system.ruby.phys_mem.num_reads::gpu.shader_cores11.data      1632938                       # Number of read requests responded to by this memory
system.ruby.phys_mem.num_reads::gpu.shader_cores11.inst            6                       # Number of read requests responded to by this memory
system.ruby.phys_mem.num_reads::gpu.shader_cores12.data      1592938                       # Number of read requests responded to by this memory
system.ruby.phys_mem.num_reads::gpu.shader_cores12.inst            6                       # Number of read requests responded to by this memory
system.ruby.phys_mem.num_reads::gpu.shader_cores13.data      1473430                       # Number of read requests responded to by this memory
system.ruby.phys_mem.num_reads::gpu.shader_cores13.inst            6                       # Number of read requests responded to by this memory
system.ruby.phys_mem.num_reads::gpu.shader_cores14.data      1321640                       # Number of read requests responded to by this memory
system.ruby.phys_mem.num_reads::gpu.shader_cores14.inst            6                       # Number of read requests responded to by this memory
system.ruby.phys_mem.num_reads::gpu.shader_cores15.data      1163929                       # Number of read requests responded to by this memory
system.ruby.phys_mem.num_reads::gpu.shader_cores15.inst            6                       # Number of read requests responded to by this memory
system.ruby.phys_mem.num_reads::total        28366572                       # Number of read requests responded to by this memory
system.ruby.phys_mem.num_writes::cpu.data       436603                       # Number of write requests responded to by this memory
system.ruby.phys_mem.num_writes::gpu.ce           472                       # Number of write requests responded to by this memory
system.ruby.phys_mem.num_writes::gpu.shader_cores00.data           32                       # Number of write requests responded to by this memory
system.ruby.phys_mem.num_writes::gpu.shader_cores01.data           32                       # Number of write requests responded to by this memory
system.ruby.phys_mem.num_writes::gpu.shader_cores02.data           32                       # Number of write requests responded to by this memory
system.ruby.phys_mem.num_writes::gpu.shader_cores03.data           32                       # Number of write requests responded to by this memory
system.ruby.phys_mem.num_writes::gpu.shader_cores04.data           32                       # Number of write requests responded to by this memory
system.ruby.phys_mem.num_writes::gpu.shader_cores05.data           32                       # Number of write requests responded to by this memory
system.ruby.phys_mem.num_writes::gpu.shader_cores06.data           32                       # Number of write requests responded to by this memory
system.ruby.phys_mem.num_writes::gpu.shader_cores07.data           32                       # Number of write requests responded to by this memory
system.ruby.phys_mem.num_writes::gpu.shader_cores08.data           32                       # Number of write requests responded to by this memory
system.ruby.phys_mem.num_writes::gpu.shader_cores09.data           32                       # Number of write requests responded to by this memory
system.ruby.phys_mem.num_writes::gpu.shader_cores10.data           32                       # Number of write requests responded to by this memory
system.ruby.phys_mem.num_writes::gpu.shader_cores11.data           32                       # Number of write requests responded to by this memory
system.ruby.phys_mem.num_writes::gpu.shader_cores12.data           32                       # Number of write requests responded to by this memory
system.ruby.phys_mem.num_writes::gpu.shader_cores13.data           32                       # Number of write requests responded to by this memory
system.ruby.phys_mem.num_writes::gpu.shader_cores14.data           32                       # Number of write requests responded to by this memory
system.ruby.phys_mem.num_writes::gpu.shader_cores15.data           32                       # Number of write requests responded to by this memory
system.ruby.phys_mem.num_writes::total         437587                       # Number of write requests responded to by this memory
system.ruby.phys_mem.bw_read::cpu.inst     3426640907                       # Total read bandwidth from this memory (bytes/s)
system.ruby.phys_mem.bw_read::cpu.data      477772220                       # Total read bandwidth from this memory (bytes/s)
system.ruby.phys_mem.bw_read::gpu.ce          5151522                       # Total read bandwidth from this memory (bytes/s)
system.ruby.phys_mem.bw_read::gpu.shader_cores00.data   5028860468                       # Total read bandwidth from this memory (bytes/s)
system.ruby.phys_mem.bw_read::gpu.shader_cores00.inst         8236                       # Total read bandwidth from this memory (bytes/s)
system.ruby.phys_mem.bw_read::gpu.shader_cores01.data   3639187534                       # Total read bandwidth from this memory (bytes/s)
system.ruby.phys_mem.bw_read::gpu.shader_cores01.inst         8236                       # Total read bandwidth from this memory (bytes/s)
system.ruby.phys_mem.bw_read::gpu.shader_cores02.data   4562900940                       # Total read bandwidth from this memory (bytes/s)
system.ruby.phys_mem.bw_read::gpu.shader_cores02.inst         8236                       # Total read bandwidth from this memory (bytes/s)
system.ruby.phys_mem.bw_read::gpu.shader_cores03.data   5854171971                       # Total read bandwidth from this memory (bytes/s)
system.ruby.phys_mem.bw_read::gpu.shader_cores03.inst         8236                       # Total read bandwidth from this memory (bytes/s)
system.ruby.phys_mem.bw_read::gpu.shader_cores04.data   6736557896                       # Total read bandwidth from this memory (bytes/s)
system.ruby.phys_mem.bw_read::gpu.shader_cores04.inst         8236                       # Total read bandwidth from this memory (bytes/s)
system.ruby.phys_mem.bw_read::gpu.shader_cores05.data   7198045359                       # Total read bandwidth from this memory (bytes/s)
system.ruby.phys_mem.bw_read::gpu.shader_cores05.inst         8236                       # Total read bandwidth from this memory (bytes/s)
system.ruby.phys_mem.bw_read::gpu.shader_cores06.data   8046167414                       # Total read bandwidth from this memory (bytes/s)
system.ruby.phys_mem.bw_read::gpu.shader_cores06.inst         8236                       # Total read bandwidth from this memory (bytes/s)
system.ruby.phys_mem.bw_read::gpu.shader_cores07.data   8421447519                       # Total read bandwidth from this memory (bytes/s)
system.ruby.phys_mem.bw_read::gpu.shader_cores07.inst         8236                       # Total read bandwidth from this memory (bytes/s)
system.ruby.phys_mem.bw_read::gpu.shader_cores08.data   8290546963                       # Total read bandwidth from this memory (bytes/s)
system.ruby.phys_mem.bw_read::gpu.shader_cores08.inst         8236                       # Total read bandwidth from this memory (bytes/s)
system.ruby.phys_mem.bw_read::gpu.shader_cores09.data   8616486107                       # Total read bandwidth from this memory (bytes/s)
system.ruby.phys_mem.bw_read::gpu.shader_cores09.inst         8236                       # Total read bandwidth from this memory (bytes/s)
system.ruby.phys_mem.bw_read::gpu.shader_cores10.data   8811708629                       # Total read bandwidth from this memory (bytes/s)
system.ruby.phys_mem.bw_read::gpu.shader_cores10.inst         8236                       # Total read bandwidth from this memory (bytes/s)
system.ruby.phys_mem.bw_read::gpu.shader_cores11.data   8524145788                       # Total read bandwidth from this memory (bytes/s)
system.ruby.phys_mem.bw_read::gpu.shader_cores11.inst         8236                       # Total read bandwidth from this memory (bytes/s)
system.ruby.phys_mem.bw_read::gpu.shader_cores12.data   8260774376                       # Total read bandwidth from this memory (bytes/s)
system.ruby.phys_mem.bw_read::gpu.shader_cores12.inst         8236                       # Total read bandwidth from this memory (bytes/s)
system.ruby.phys_mem.bw_read::gpu.shader_cores13.data   7739220134                       # Total read bandwidth from this memory (bytes/s)
system.ruby.phys_mem.bw_read::gpu.shader_cores13.inst         8236                       # Total read bandwidth from this memory (bytes/s)
system.ruby.phys_mem.bw_read::gpu.shader_cores14.data   6820198415                       # Total read bandwidth from this memory (bytes/s)
system.ruby.phys_mem.bw_read::gpu.shader_cores14.inst         8236                       # Total read bandwidth from this memory (bytes/s)
system.ruby.phys_mem.bw_read::gpu.shader_cores15.data   5890000652                       # Total read bandwidth from this memory (bytes/s)
system.ruby.phys_mem.bw_read::gpu.shader_cores15.inst         8236                       # Total read bandwidth from this memory (bytes/s)
system.ruby.phys_mem.bw_read::total      116350116589                       # Total read bandwidth from this memory (bytes/s)
system.ruby.phys_mem.bw_inst_read::cpu.inst   3426640907                       # Instruction read bandwidth from this memory (bytes/s)
system.ruby.phys_mem.bw_inst_read::gpu.shader_cores00.inst         8236                       # Instruction read bandwidth from this memory (bytes/s)
system.ruby.phys_mem.bw_inst_read::gpu.shader_cores01.inst         8236                       # Instruction read bandwidth from this memory (bytes/s)
system.ruby.phys_mem.bw_inst_read::gpu.shader_cores02.inst         8236                       # Instruction read bandwidth from this memory (bytes/s)
system.ruby.phys_mem.bw_inst_read::gpu.shader_cores03.inst         8236                       # Instruction read bandwidth from this memory (bytes/s)
system.ruby.phys_mem.bw_inst_read::gpu.shader_cores04.inst         8236                       # Instruction read bandwidth from this memory (bytes/s)
system.ruby.phys_mem.bw_inst_read::gpu.shader_cores05.inst         8236                       # Instruction read bandwidth from this memory (bytes/s)
system.ruby.phys_mem.bw_inst_read::gpu.shader_cores06.inst         8236                       # Instruction read bandwidth from this memory (bytes/s)
system.ruby.phys_mem.bw_inst_read::gpu.shader_cores07.inst         8236                       # Instruction read bandwidth from this memory (bytes/s)
system.ruby.phys_mem.bw_inst_read::gpu.shader_cores08.inst         8236                       # Instruction read bandwidth from this memory (bytes/s)
system.ruby.phys_mem.bw_inst_read::gpu.shader_cores09.inst         8236                       # Instruction read bandwidth from this memory (bytes/s)
system.ruby.phys_mem.bw_inst_read::gpu.shader_cores10.inst         8236                       # Instruction read bandwidth from this memory (bytes/s)
system.ruby.phys_mem.bw_inst_read::gpu.shader_cores11.inst         8236                       # Instruction read bandwidth from this memory (bytes/s)
system.ruby.phys_mem.bw_inst_read::gpu.shader_cores12.inst         8236                       # Instruction read bandwidth from this memory (bytes/s)
system.ruby.phys_mem.bw_inst_read::gpu.shader_cores13.inst         8236                       # Instruction read bandwidth from this memory (bytes/s)
system.ruby.phys_mem.bw_inst_read::gpu.shader_cores14.inst         8236                       # Instruction read bandwidth from this memory (bytes/s)
system.ruby.phys_mem.bw_inst_read::gpu.shader_cores15.inst         8236                       # Instruction read bandwidth from this memory (bytes/s)
system.ruby.phys_mem.bw_inst_read::total   3426772680                       # Instruction read bandwidth from this memory (bytes/s)
system.ruby.phys_mem.bw_write::cpu.data     182833921                       # Write bandwidth from this memory (bytes/s)
system.ruby.phys_mem.bw_write::gpu.ce         5151522                       # Write bandwidth from this memory (bytes/s)
system.ruby.phys_mem.bw_write::gpu.shader_cores00.data        87849                       # Write bandwidth from this memory (bytes/s)
system.ruby.phys_mem.bw_write::gpu.shader_cores01.data        87849                       # Write bandwidth from this memory (bytes/s)
system.ruby.phys_mem.bw_write::gpu.shader_cores02.data        87849                       # Write bandwidth from this memory (bytes/s)
system.ruby.phys_mem.bw_write::gpu.shader_cores03.data        87849                       # Write bandwidth from this memory (bytes/s)
system.ruby.phys_mem.bw_write::gpu.shader_cores04.data        87849                       # Write bandwidth from this memory (bytes/s)
system.ruby.phys_mem.bw_write::gpu.shader_cores05.data        87849                       # Write bandwidth from this memory (bytes/s)
system.ruby.phys_mem.bw_write::gpu.shader_cores06.data        87849                       # Write bandwidth from this memory (bytes/s)
system.ruby.phys_mem.bw_write::gpu.shader_cores07.data        87849                       # Write bandwidth from this memory (bytes/s)
system.ruby.phys_mem.bw_write::gpu.shader_cores08.data        87849                       # Write bandwidth from this memory (bytes/s)
system.ruby.phys_mem.bw_write::gpu.shader_cores09.data        87849                       # Write bandwidth from this memory (bytes/s)
system.ruby.phys_mem.bw_write::gpu.shader_cores10.data        87849                       # Write bandwidth from this memory (bytes/s)
system.ruby.phys_mem.bw_write::gpu.shader_cores11.data        87849                       # Write bandwidth from this memory (bytes/s)
system.ruby.phys_mem.bw_write::gpu.shader_cores12.data        87849                       # Write bandwidth from this memory (bytes/s)
system.ruby.phys_mem.bw_write::gpu.shader_cores13.data        87849                       # Write bandwidth from this memory (bytes/s)
system.ruby.phys_mem.bw_write::gpu.shader_cores14.data        87849                       # Write bandwidth from this memory (bytes/s)
system.ruby.phys_mem.bw_write::gpu.shader_cores15.data        87849                       # Write bandwidth from this memory (bytes/s)
system.ruby.phys_mem.bw_write::total        189391028                       # Write bandwidth from this memory (bytes/s)
system.ruby.phys_mem.bw_total::cpu.inst    3426640907                       # Total bandwidth to/from this memory (bytes/s)
system.ruby.phys_mem.bw_total::cpu.data     660606141                       # Total bandwidth to/from this memory (bytes/s)
system.ruby.phys_mem.bw_total::gpu.ce        10303045                       # Total bandwidth to/from this memory (bytes/s)
system.ruby.phys_mem.bw_total::gpu.shader_cores00.data   5028948317                       # Total bandwidth to/from this memory (bytes/s)
system.ruby.phys_mem.bw_total::gpu.shader_cores00.inst         8236                       # Total bandwidth to/from this memory (bytes/s)
system.ruby.phys_mem.bw_total::gpu.shader_cores01.data   3639275383                       # Total bandwidth to/from this memory (bytes/s)
system.ruby.phys_mem.bw_total::gpu.shader_cores01.inst         8236                       # Total bandwidth to/from this memory (bytes/s)
system.ruby.phys_mem.bw_total::gpu.shader_cores02.data   4562988789                       # Total bandwidth to/from this memory (bytes/s)
system.ruby.phys_mem.bw_total::gpu.shader_cores02.inst         8236                       # Total bandwidth to/from this memory (bytes/s)
system.ruby.phys_mem.bw_total::gpu.shader_cores03.data   5854259820                       # Total bandwidth to/from this memory (bytes/s)
system.ruby.phys_mem.bw_total::gpu.shader_cores03.inst         8236                       # Total bandwidth to/from this memory (bytes/s)
system.ruby.phys_mem.bw_total::gpu.shader_cores04.data   6736645745                       # Total bandwidth to/from this memory (bytes/s)
system.ruby.phys_mem.bw_total::gpu.shader_cores04.inst         8236                       # Total bandwidth to/from this memory (bytes/s)
system.ruby.phys_mem.bw_total::gpu.shader_cores05.data   7198133208                       # Total bandwidth to/from this memory (bytes/s)
system.ruby.phys_mem.bw_total::gpu.shader_cores05.inst         8236                       # Total bandwidth to/from this memory (bytes/s)
system.ruby.phys_mem.bw_total::gpu.shader_cores06.data   8046255263                       # Total bandwidth to/from this memory (bytes/s)
system.ruby.phys_mem.bw_total::gpu.shader_cores06.inst         8236                       # Total bandwidth to/from this memory (bytes/s)
system.ruby.phys_mem.bw_total::gpu.shader_cores07.data   8421535368                       # Total bandwidth to/from this memory (bytes/s)
system.ruby.phys_mem.bw_total::gpu.shader_cores07.inst         8236                       # Total bandwidth to/from this memory (bytes/s)
system.ruby.phys_mem.bw_total::gpu.shader_cores08.data   8290634812                       # Total bandwidth to/from this memory (bytes/s)
system.ruby.phys_mem.bw_total::gpu.shader_cores08.inst         8236                       # Total bandwidth to/from this memory (bytes/s)
system.ruby.phys_mem.bw_total::gpu.shader_cores09.data   8616573956                       # Total bandwidth to/from this memory (bytes/s)
system.ruby.phys_mem.bw_total::gpu.shader_cores09.inst         8236                       # Total bandwidth to/from this memory (bytes/s)
system.ruby.phys_mem.bw_total::gpu.shader_cores10.data   8811796478                       # Total bandwidth to/from this memory (bytes/s)
system.ruby.phys_mem.bw_total::gpu.shader_cores10.inst         8236                       # Total bandwidth to/from this memory (bytes/s)
system.ruby.phys_mem.bw_total::gpu.shader_cores11.data   8524233637                       # Total bandwidth to/from this memory (bytes/s)
system.ruby.phys_mem.bw_total::gpu.shader_cores11.inst         8236                       # Total bandwidth to/from this memory (bytes/s)
system.ruby.phys_mem.bw_total::gpu.shader_cores12.data   8260862225                       # Total bandwidth to/from this memory (bytes/s)
system.ruby.phys_mem.bw_total::gpu.shader_cores12.inst         8236                       # Total bandwidth to/from this memory (bytes/s)
system.ruby.phys_mem.bw_total::gpu.shader_cores13.data   7739307983                       # Total bandwidth to/from this memory (bytes/s)
system.ruby.phys_mem.bw_total::gpu.shader_cores13.inst         8236                       # Total bandwidth to/from this memory (bytes/s)
system.ruby.phys_mem.bw_total::gpu.shader_cores14.data   6820286264                       # Total bandwidth to/from this memory (bytes/s)
system.ruby.phys_mem.bw_total::gpu.shader_cores14.inst         8236                       # Total bandwidth to/from this memory (bytes/s)
system.ruby.phys_mem.bw_total::gpu.shader_cores15.data   5890088501                       # Total bandwidth to/from this memory (bytes/s)
system.ruby.phys_mem.bw_total::gpu.shader_cores15.inst         8236                       # Total bandwidth to/from this memory (bytes/s)
system.ruby.phys_mem.bw_total::total     116539507616                       # Total bandwidth to/from this memory (bytes/s)
system.cpu_voltage_domain.voltage                   1                       # Voltage in Volts
system.cpu_clk_domain.clock                       500                       # Clock period in ticks
system.cpu.apic_clk_domain.clock                 8000                       # Clock period in ticks
system.cpu.workload.num_syscalls                   54                       # Number of system calls
system.cpu.numCycles                         23312720                       # number of cpu cycles simulated
system.cpu.numWorkItemsStarted                      0                       # number of work items this cpu started
system.cpu.numWorkItemsCompleted                    0                       # number of work items this cpu completed
system.cpu.committedInsts                     3717133                       # Number of instructions committed
system.cpu.committedOps                       6380256                       # Number of ops (including micro ops) committed
system.cpu.num_int_alu_accesses               5821074                       # Number of integer alu accesses
system.cpu.num_fp_alu_accesses                 736322                       # Number of float alu accesses
system.cpu.num_func_calls                       53038                       # number of times a function call or return occured
system.cpu.num_conditional_control_insts       364450                       # number of instructions that are conditional controls
system.cpu.num_int_insts                      5821074                       # number of integer instructions
system.cpu.num_fp_insts                        736322                       # number of float instructions
system.cpu.num_int_register_reads            11878136                       # number of times the integer registers were read
system.cpu.num_int_register_writes            5006909                       # number of times the integer registers were written
system.cpu.num_fp_register_reads              1250385                       # number of times the floating registers were read
system.cpu.num_fp_register_writes              667471                       # number of times the floating registers were written
system.cpu.num_cc_register_reads              2638422                       # number of times the CC registers were read
system.cpu.num_cc_register_writes             2458847                       # number of times the CC registers were written
system.cpu.num_mem_refs                       1422803                       # number of memory refs
system.cpu.num_load_insts                      986342                       # Number of load instructions
system.cpu.num_store_insts                     436461                       # Number of store instructions
system.cpu.num_idle_cycles               10107684.011133                       # Number of idle cycles
system.cpu.num_busy_cycles               13205035.988867                       # Number of busy cycles
system.cpu.not_idle_fraction                 0.566431                       # Percentage of non-idle cycles
system.cpu.idle_fraction                     0.433569                       # Percentage of idle cycles
system.cpu.Branches                            457241                       # Number of branches fetched
system.cpu.op_class::No_OpClass                 18650      0.29%      0.29% # Class of executed instruction
system.cpu.op_class::IntAlu                   4401888     68.99%     69.28% # Class of executed instruction
system.cpu.op_class::IntMult                    97169      1.52%     70.81% # Class of executed instruction
system.cpu.op_class::IntDiv                     57646      0.90%     71.71% # Class of executed instruction
system.cpu.op_class::FloatAdd                  382100      5.99%     77.70% # Class of executed instruction
system.cpu.op_class::FloatCmp                       0      0.00%     77.70% # Class of executed instruction
system.cpu.op_class::FloatCvt                       0      0.00%     77.70% # Class of executed instruction
system.cpu.op_class::FloatMult                      0      0.00%     77.70% # Class of executed instruction
system.cpu.op_class::FloatDiv                       0      0.00%     77.70% # Class of executed instruction
system.cpu.op_class::FloatSqrt                      0      0.00%     77.70% # Class of executed instruction
system.cpu.op_class::SimdAdd                        0      0.00%     77.70% # Class of executed instruction
system.cpu.op_class::SimdAddAcc                     0      0.00%     77.70% # Class of executed instruction
system.cpu.op_class::SimdAlu                        0      0.00%     77.70% # Class of executed instruction
system.cpu.op_class::SimdCmp                        0      0.00%     77.70% # Class of executed instruction
system.cpu.op_class::SimdCvt                        0      0.00%     77.70% # Class of executed instruction
system.cpu.op_class::SimdMisc                       0      0.00%     77.70% # Class of executed instruction
system.cpu.op_class::SimdMult                       0      0.00%     77.70% # Class of executed instruction
system.cpu.op_class::SimdMultAcc                    0      0.00%     77.70% # Class of executed instruction
system.cpu.op_class::SimdShift                      0      0.00%     77.70% # Class of executed instruction
system.cpu.op_class::SimdShiftAcc                   0      0.00%     77.70% # Class of executed instruction
system.cpu.op_class::SimdSqrt                       0      0.00%     77.70% # Class of executed instruction
system.cpu.op_class::SimdFloatAdd                   0      0.00%     77.70% # Class of executed instruction
system.cpu.op_class::SimdFloatAlu                   0      0.00%     77.70% # Class of executed instruction
system.cpu.op_class::SimdFloatCmp                   0      0.00%     77.70% # Class of executed instruction
system.cpu.op_class::SimdFloatCvt                   0      0.00%     77.70% # Class of executed instruction
system.cpu.op_class::SimdFloatDiv                   0      0.00%     77.70% # Class of executed instruction
system.cpu.op_class::SimdFloatMisc                  0      0.00%     77.70% # Class of executed instruction
system.cpu.op_class::SimdFloatMult                  0      0.00%     77.70% # Class of executed instruction
system.cpu.op_class::SimdFloatMultAcc               0      0.00%     77.70% # Class of executed instruction
system.cpu.op_class::SimdFloatSqrt                  0      0.00%     77.70% # Class of executed instruction
system.cpu.op_class::MemRead                   986342     15.46%     93.16% # Class of executed instruction
system.cpu.op_class::MemWrite                  436461      6.84%    100.00% # Class of executed instruction
system.cpu.op_class::IprAccess                      0      0.00%    100.00% # Class of executed instruction
system.cpu.op_class::InstPrefetch                   0      0.00%    100.00% # Class of executed instruction
system.cpu.op_class::total                    6380256                       # Class of executed instruction
system.gpu.clk_domain.voltage_domain.voltage            1                       # Voltage in Volts
system.gpu.clk_domain.clock                      1429                       # Clock period in ticks
system.gpu.dram_wrapper.clk_domain.clock          541                       # Clock period in ticks
system.gpu.icnt_wrapper.clk_domain.clock         2858                       # Clock period in ticks
system.ruby.delayHist::bucket_size                128                       # delay histogram for all message
system.ruby.delayHist::max_bucket                1279                       # delay histogram for all message
system.ruby.delayHist::samples                   4752                       # delay histogram for all message
system.ruby.delayHist::mean                 11.578283                       # delay histogram for all message
system.ruby.delayHist::stdev                64.964623                       # delay histogram for all message
system.ruby.delayHist                    |        4635     97.54%     97.54% |          38      0.80%     98.34% |          20      0.42%     98.76% |          34      0.72%     99.47% |          19      0.40%     99.87% |           6      0.13%    100.00% |           0      0.00%    100.00% |           0      0.00%    100.00% |           0      0.00%    100.00% |           0      0.00%    100.00% # delay histogram for all message
system.ruby.delayHist::total                     4752                       # delay histogram for all message
system.ruby.outstanding_req_hist::bucket_size           16                      
system.ruby.outstanding_req_hist::max_bucket          159                      
system.ruby.outstanding_req_hist::samples     28804159                      
system.ruby.outstanding_req_hist::mean       1.015097                      
system.ruby.outstanding_req_hist::gmean      1.008281                      
system.ruby.outstanding_req_hist::stdev      0.587900                      
system.ruby.outstanding_req_hist         |    28803278    100.00%    100.00% |          55      0.00%    100.00% |          57      0.00%    100.00% |          60      0.00%    100.00% |          58      0.00%    100.00% |          58      0.00%    100.00% |          59      0.00%    100.00% |         371      0.00%    100.00% |         163      0.00%    100.00% |           0      0.00%    100.00%
system.ruby.outstanding_req_hist::total      28804159                      
system.ruby.latency_hist::bucket_size             512                      
system.ruby.latency_hist::max_bucket             5119                      
system.ruby.latency_hist::samples            28804159                      
system.ruby.latency_hist::mean               1.152302                      
system.ruby.latency_hist::gmean              1.001852                      
system.ruby.latency_hist::stdev             14.669373                      
system.ruby.latency_hist                 |    28802553     99.99%     99.99% |         839      0.00%    100.00% |         238      0.00%    100.00% |          55      0.00%    100.00% |          91      0.00%    100.00% |         141      0.00%    100.00% |         150      0.00%    100.00% |          92      0.00%    100.00% |           0      0.00%    100.00% |           0      0.00%    100.00%
system.ruby.latency_hist::total              28804159                      
system.ruby.hit_latency_hist::bucket_size          512                      
system.ruby.hit_latency_hist::max_bucket         5119                      
system.ruby.hit_latency_hist::samples        28797056                      
system.ruby.hit_latency_hist::mean           1.071264                      
system.ruby.hit_latency_hist::gmean          1.000481                      
system.ruby.hit_latency_hist::stdev         13.102089                      
system.ruby.hit_latency_hist             |    28796128    100.00%    100.00% |         271      0.00%    100.00% |         205      0.00%    100.00% |          17      0.00%    100.00% |          60      0.00%    100.00% |         133      0.00%    100.00% |         150      0.00%    100.00% |          92      0.00%    100.00% |           0      0.00%    100.00% |           0      0.00%    100.00%
system.ruby.hit_latency_hist::total          28797056                      
system.ruby.miss_latency_hist::bucket_size          512                      
system.ruby.miss_latency_hist::max_bucket         5119                      
system.ruby.miss_latency_hist::samples           7103                      
system.ruby.miss_latency_hist::mean        329.698437                      
system.ruby.miss_latency_hist::gmean       258.339671                      
system.ruby.miss_latency_hist::stdev       262.141825                      
system.ruby.miss_latency_hist            |        6425     90.45%     90.45% |         568      8.00%     98.45% |          33      0.46%     98.92% |          38      0.53%     99.45% |          31      0.44%     99.89% |           8      0.11%    100.00% |           0      0.00%    100.00% |           0      0.00%    100.00% |           0      0.00%    100.00% |           0      0.00%    100.00%
system.ruby.miss_latency_hist::total             7103                      
system.ruby.L1Cache.incomplete_times                6                      
system.ruby.GPUL2Cache.incomplete_times          3893                      
system.ruby.Directory.incomplete_times            341                      
system.gpu.shader_mmu.numPagefaults                 0                       # Number of Pagefaults
system.gpu.shader_mmu.numPagewalks                236                       # Number of Pagewalks
system.gpu.shader_mmu.totalRequests               236                       # Total number of requests
system.gpu.shader_mmu.l2hits                        0                       # Hits in the shared L2
system.gpu.shader_mmu.prefetchHits                  0                       # Number of prefetch hits
system.gpu.shader_mmu.numPrefetches                 0                       # Number of prefetchs
system.gpu.shader_mmu.prefetchFaults                0                       # Number of faults caused by prefetches
system.gpu.shader_mmu.pagefaultLatency::samples            0                       # Latency to complete the pagefault
system.gpu.shader_mmu.pagefaultLatency::mean          nan                       # Latency to complete the pagefault
system.gpu.shader_mmu.pagefaultLatency::gmean          nan                       # Latency to complete the pagefault
system.gpu.shader_mmu.pagefaultLatency::stdev          nan                       # Latency to complete the pagefault
system.gpu.shader_mmu.pagefaultLatency::0            0                       # Latency to complete the pagefault
system.gpu.shader_mmu.pagefaultLatency::1            0                       # Latency to complete the pagefault
system.gpu.shader_mmu.pagefaultLatency::2            0                       # Latency to complete the pagefault
system.gpu.shader_mmu.pagefaultLatency::3            0                       # Latency to complete the pagefault
system.gpu.shader_mmu.pagefaultLatency::4            0                       # Latency to complete the pagefault
system.gpu.shader_mmu.pagefaultLatency::5            0                       # Latency to complete the pagefault
system.gpu.shader_mmu.pagefaultLatency::6            0                       # Latency to complete the pagefault
system.gpu.shader_mmu.pagefaultLatency::7            0                       # Latency to complete the pagefault
system.gpu.shader_mmu.pagefaultLatency::8            0                       # Latency to complete the pagefault
system.gpu.shader_mmu.pagefaultLatency::9            0                       # Latency to complete the pagefault
system.gpu.shader_mmu.pagefaultLatency::10            0                       # Latency to complete the pagefault
system.gpu.shader_mmu.pagefaultLatency::11            0                       # Latency to complete the pagefault
system.gpu.shader_mmu.pagefaultLatency::12            0                       # Latency to complete the pagefault
system.gpu.shader_mmu.pagefaultLatency::13            0                       # Latency to complete the pagefault
system.gpu.shader_mmu.pagefaultLatency::14            0                       # Latency to complete the pagefault
system.gpu.shader_mmu.pagefaultLatency::15            0                       # Latency to complete the pagefault
[...]
system.ruby.L1Cache_Controller.I.L1_to_L2::total          107                      
system.ruby.L1Cache_Controller.I.Trigger_L2_to_L1D |          40    100.00%    100.00% |           0      0.00%    100.00%
system.ruby.L1Cache_Controller.I.Trigger_L2_to_L1D::total           40                      
system.ruby.L1Cache_Controller.I.Other_GETX |         568     26.28%     26.28% |        1593     73.72%    100.00%
system.ruby.L1Cache_Controller.I.Other_GETX::total         2161                      
system.ruby.L1Cache_Controller.I.Other_GETS |         469     14.85%     14.85% |        2690     85.15%    100.00%
system.ruby.L1Cache_Controller.I.Other_GETS::total         3159                      
system.ruby.L1Cache_Controller.S.Load    |           4    100.00%    100.00% |           0      0.00%    100.00%
system.ruby.L1Cache_Controller.S.Load::total            4                      
system.ruby.L1Cache_Controller.S.Store   |           2    100.00%    100.00% |           0      0.00%    100.00%
system.ruby.L1Cache_Controller.S.Store::total            2                      
system.ruby.L1Cache_Controller.O.Load    |           1    100.00%    100.00% |           0      0.00%    100.00%
system.ruby.L1Cache_Controller.O.Load::total            1                      
system.ruby.L1Cache_Controller.O.Ifetch  |          15    100.00%    100.00% |           0      0.00%    100.00%
system.ruby.L1Cache_Controller.O.Ifetch::total           15                      
system.ruby.L1Cache_Controller.O.L1_to_L2 |           4    100.00%    100.00% |           0      0.00%    100.00%
system.ruby.L1Cache_Controller.O.L1_to_L2::total            4                      
system.ruby.L1Cache_Controller.O.Trigger_L2_to_L1I |           3    100.00%    100.00% |           0      0.00%    100.00%
system.ruby.L1Cache_Controller.O.Trigger_L2_to_L1I::total            3                      
system.ruby.L1Cache_Controller.O.Other_GETX |           1    100.00%    100.00% |           0      0.00%    100.00%
system.ruby.L1Cache_Controller.O.Other_GETX::total            1                      
system.ruby.L1Cache_Controller.M.Load    |      134288    100.00%    100.00% |           0      0.00%    100.00%
system.ruby.L1Cache_Controller.M.Load::total       134288                      
system.ruby.L1Cache_Controller.M.Ifetch  |     4990603    100.00%    100.00% |           0      0.00%    100.00%
system.ruby.L1Cache_Controller.M.Ifetch::total      4990603                      
system.ruby.L1Cache_Controller.M.Store   |         151    100.00%    100.00% |           0      0.00%    100.00%
system.ruby.L1Cache_Controller.M.Store::total          151                      
system.ruby.L1Cache_Controller.M.L1_to_L2 |        2246    100.00%    100.00% |           0      0.00%    100.00%
system.ruby.L1Cache_Controller.M.L1_to_L2::total         2246                      
system.ruby.L1Cache_Controller.M.Trigger_L2_to_L1D |          84    100.00%    100.00% |           0      0.00%    100.00%
system.ruby.L1Cache_Controller.M.Trigger_L2_to_L1D::total           84                      
system.ruby.L1Cache_Controller.M.Trigger_L2_to_L1I |         862    100.00%    100.00% |           0      0.00%    100.00%
system.ruby.L1Cache_Controller.M.Trigger_L2_to_L1I::total          862                      
system.ruby.L1Cache_Controller.M.Other_GETX |          22    100.00%    100.00% |           0      0.00%    100.00%
system.ruby.L1Cache_Controller.M.Other_GETX::total           22                      
system.ruby.L1Cache_Controller.M.Other_GETS |           6    100.00%    100.00% |           0      0.00%    100.00%
system.ruby.L1Cache_Controller.M.Other_GETS::total            6                      
system.ruby.L1Cache_Controller.MM.Load   |      812327    100.00%    100.00% |           0      0.00%    100.00%
system.ruby.L1Cache_Controller.MM.Load::total       812327                      
system.ruby.L1Cache_Controller.MM.Store  |      474068    100.00%    100.00% |           0      0.00%    100.00%
system.ruby.L1Cache_Controller.MM.Store::total       474068                      
system.ruby.L1Cache_Controller.MM.L1_to_L2 |        1049    100.00%    100.00% |           0      0.00%    100.00%
system.ruby.L1Cache_Controller.MM.L1_to_L2::total         1049                      
system.ruby.L1Cache_Controller.MM.Trigger_L2_to_L1D |         462    100.00%    100.00% |           0      0.00%    100.00%
system.ruby.L1Cache_Controller.MM.Trigger_L2_to_L1D::total          462                      
system.ruby.L1Cache_Controller.MM.Other_GETX |           9    100.00%    100.00% |           0      0.00%    100.00%
system.ruby.L1Cache_Controller.MM.Other_GETX::total            9                      
system.ruby.L1Cache_Controller.MM.Other_GETS |         345    100.00%    100.00% |           0      0.00%    100.00%
system.ruby.L1Cache_Controller.MM.Other_GETS::total          345                      
system.ruby.L1Cache_Controller.IR.Load   |          40    100.00%    100.00% |           0      0.00%    100.00%
system.ruby.L1Cache_Controller.IR.Load::total           40                      
system.ruby.L1Cache_Controller.OR.Ifetch |           3    100.00%    100.00% |           0      0.00%    100.00%
system.ruby.L1Cache_Controller.OR.Ifetch::total            3                      
system.ruby.L1Cache_Controller.MR.Load   |          61    100.00%    100.00% |           0      0.00%    100.00%
system.ruby.L1Cache_Controller.MR.Load::total           61                      
system.ruby.L1Cache_Controller.MR.Ifetch |         862    100.00%    100.00% |           0      0.00%    100.00%
system.ruby.L1Cache_Controller.MR.Ifetch::total          862                      
system.ruby.L1Cache_Controller.MR.Store  |          23    100.00%    100.00% |           0      0.00%    100.00%
system.ruby.L1Cache_Controller.MR.Store::total           23                      
system.ruby.L1Cache_Controller.MMR.Load  |         290    100.00%    100.00% |           0      0.00%    100.00%
system.ruby.L1Cache_Controller.MMR.Load::total          290                      
system.ruby.L1Cache_Controller.MMR.Store |         172    100.00%    100.00% |           0      0.00%    100.00%
system.ruby.L1Cache_Controller.MMR.Store::total          172                      
system.ruby.L1Cache_Controller.IM.Ack    |        1982    100.00%    100.00% |           0      0.00%    100.00%
system.ruby.L1Cache_Controller.IM.Ack::total         1982                      
system.ruby.L1Cache_Controller.IM.Exclusive_Data |         991    100.00%    100.00% |           0      0.00%    100.00%
system.ruby.L1Cache_Controller.IM.Exclusive_Data::total          991                      
system.ruby.L1Cache_Controller.SM.Ack    |           2    100.00%    100.00% |           0      0.00%    100.00%
system.ruby.L1Cache_Controller.SM.Ack::total            2                      
system.ruby.L1Cache_Controller.SM.Data   |           2    100.00%    100.00% |           0      0.00%    100.00%
system.ruby.L1Cache_Controller.SM.Data::total            2                      
system.ruby.L1Cache_Controller.ISM.All_acks_no_sharers |           2    100.00%    100.00% |           0      0.00%    100.00%
system.ruby.L1Cache_Controller.ISM.All_acks_no_sharers::total            2                      
system.ruby.L1Cache_Controller.M_W.Ack   |           9    100.00%    100.00% |           0      0.00%    100.00%
system.ruby.L1Cache_Controller.M_W.Ack::total            9                      
system.ruby.L1Cache_Controller.M_W.All_acks_no_sharers |        1868    100.00%    100.00% |           0      0.00%    100.00%
system.ruby.L1Cache_Controller.M_W.All_acks_no_sharers::total         1868                      
system.ruby.L1Cache_Controller.MM_W.All_acks_no_sharers |         991    100.00%    100.00% |           0      0.00%    100.00%
system.ruby.L1Cache_Controller.MM_W.All_acks_no_sharers::total          991                      
system.ruby.L1Cache_Controller.IS.Ack    |        3729    100.00%    100.00% |           0      0.00%    100.00%
system.ruby.L1Cache_Controller.IS.Ack::total         3729                      
system.ruby.L1Cache_Controller.IS.Shared_Data |           2    100.00%    100.00% |           0      0.00%    100.00%
system.ruby.L1Cache_Controller.IS.Shared_Data::total            2                      
system.ruby.L1Cache_Controller.IS.Exclusive_Data |        1868    100.00%    100.00% |           0      0.00%    100.00%
system.ruby.L1Cache_Controller.IS.Exclusive_Data::total         1868                      
system.ruby.L1Cache_Controller.SS.All_acks |           2    100.00%    100.00% |           0      0.00%    100.00%
system.ruby.L1Cache_Controller.SS.All_acks::total            2                      
system.ruby.L1Cache_Controller.IT.Complete_L2_to_L1 |          40    100.00%    100.00% |           0      0.00%    100.00%
system.ruby.L1Cache_Controller.IT.Complete_L2_to_L1::total           40                      
system.ruby.L1Cache_Controller.OT.Complete_L2_to_L1 |           3    100.00%    100.00% |           0      0.00%    100.00%
system.ruby.L1Cache_Controller.OT.Complete_L2_to_L1::total            3                      
system.ruby.L1Cache_Controller.MT.Complete_L2_to_L1 |         946    100.00%    100.00% |           0      0.00%    100.00%
system.ruby.L1Cache_Controller.MT.Complete_L2_to_L1::total          946                      
system.ruby.L1Cache_Controller.MMT.Complete_L2_to_L1 |         462    100.00%    100.00% |           0      0.00%    100.00%
system.ruby.L1Cache_Controller.MMT.Complete_L2_to_L1::total          462                      
system.ruby.GPUL1Cache_Controller.Load   |     1003269      4.48%      4.48% |      783183      3.50%      7.98% |      965615      4.31%     12.29% |     1169663      5.22%     17.52% |     1369531      6.12%     23.64% |     1522309      6.80%     30.44% |     1637122      7.31%     37.75% |     1673395      7.47%     45.22% |     1670956      7.46%     52.69% |     1705623      7.62%     60.31% |     1701334      7.60%     67.91% |     1632938      7.29%     75.20% |     1592938      7.12%     82.32% |     1473430      6.58%     88.90% |     1321640      5.90%     94.80% |     1163929      5.20%    100.00%
system.ruby.GPUL1Cache_Controller.Load::total     22386875                      
system.ruby.GPUL1Cache_Controller.Ifetch |           6      6.25%      6.25% |           6      6.25%     12.50% |           6      6.25%     18.75% |           6      6.25%     25.00% |           6      6.25%     31.25% |           6      6.25%     37.50% |           6      6.25%     43.75% |           6      6.25%     50.00% |           6      6.25%     56.25% |           6      6.25%     62.50% |           6      6.25%     68.75% |           6      6.25%     75.00% |           6      6.25%     81.25% |           6      6.25%     87.50% |           6      6.25%     93.75% |           6      6.25%    100.00%
system.ruby.GPUL1Cache_Controller.Ifetch::total           96                      
system.ruby.GPUL1Cache_Controller.Store  |          32      6.25%      6.25% |          32      6.25%     12.50% |          32      6.25%     18.75% |          32      6.25%     25.00% |          32      6.25%     31.25% |          32      6.25%     37.50% |          32      6.25%     43.75% |          32      6.25%     50.00% |          32      6.25%     56.25% |          32      6.25%     62.50% |          32      6.25%     68.75% |          32      6.25%     75.00% |          32      6.25%     81.25% |          32      6.25%     87.50% |          32      6.25%     93.75% |          32      6.25%    100.00%
system.ruby.GPUL1Cache_Controller.Store::total          512                      
system.ruby.GPUL1Cache_Controller.Data   |         186      4.39%      4.39% |         182      4.29%      8.68% |         210      4.95%     13.63% |         238      5.61%     19.25% |         267      6.30%     25.54% |         295      6.96%     32.50% |         306      7.22%     39.72% |         306      7.22%     46.93% |         306      7.22%     54.15% |         306      7.22%     61.37% |         306      7.22%     68.58% |         306      7.22%     75.80% |         299      7.05%     82.85% |         271      6.39%     89.25% |         242      5.71%     94.95% |         214      5.05%    100.00%
system.ruby.GPUL1Cache_Controller.Data::total         4240                      
system.ruby.GPUL1Cache_Controller.Write_Ack |          32      6.25%      6.25% |          32      6.25%     12.50% |          32      6.25%     18.75% |          32      6.25%     25.00% |          32      6.25%     31.25% |          32      6.25%     37.50% |          32      6.25%     43.75% |          32      6.25%     50.00% |          32      6.25%     56.25% |          32      6.25%     62.50% |          32      6.25%     68.75% |          32      6.25%     75.00% |          32      6.25%     81.25% |          32      6.25%     87.50% |          32      6.25%     93.75% |          32      6.25%    100.00%
system.ruby.GPUL1Cache_Controller.Write_Ack::total          512                      
system.ruby.GPUL1Cache_Controller.I.Load |         180      4.34%      4.34% |         176      4.25%      8.59% |         204      4.92%     13.51% |         232      5.60%     19.11% |         261      6.30%     25.41% |         289      6.97%     32.38% |         300      7.24%     39.62% |         300      7.24%     46.86% |         300      7.24%     54.10% |         300      7.24%     61.34% |         300      7.24%     68.58% |         300      7.24%     75.82% |         293      7.07%     82.89% |         265      6.39%     89.29% |         236      5.69%     94.98% |         208      5.02%    100.00%
system.ruby.GPUL1Cache_Controller.I.Load::total         4144                      
system.ruby.GPUL1Cache_Controller.I.Ifetch |           6      6.25%      6.25% |           6      6.25%     12.50% |           6      6.25%     18.75% |           6      6.25%     25.00% |           6      6.25%     31.25% |           6      6.25%     37.50% |           6      6.25%     43.75% |           6      6.25%     50.00% |           6      6.25%     56.25% |           6      6.25%     62.50% |           6      6.25%     68.75% |           6      6.25%     75.00% |           6      6.25%     81.25% |           6      6.25%     87.50% |           6      6.25%     93.75% |           6      6.25%    100.00%
system.ruby.GPUL1Cache_Controller.I.Ifetch::total           96                      
system.ruby.GPUL1Cache_Controller.I.Store |          32      6.25%      6.25% |          32      6.25%     12.50% |          32      6.25%     18.75% |          32      6.25%     25.00% |          32      6.25%     31.25% |          32      6.25%     37.50% |          32      6.25%     43.75% |          32      6.25%     50.00% |          32      6.25%     56.25% |          32      6.25%     62.50% |          32      6.25%     68.75% |          32      6.25%     75.00% |          32      6.25%     81.25% |          32      6.25%     87.50% |          32      6.25%     93.75% |          32      6.25%    100.00%
system.ruby.GPUL1Cache_Controller.I.Store::total          512                      
system.ruby.GPUL1Cache_Controller.V.Load |     1003089      4.48%      4.48% |      783007      3.50%      7.98% |      965411      4.31%     12.29% |     1169431      5.22%     17.52% |     1369270      6.12%     23.64% |     1522020      6.80%     30.44% |     1636822      7.31%     37.75% |     1673095      7.47%     45.22% |     1670656      7.46%     52.69% |     1705323      7.62%     60.31% |     1701034      7.60%     67.91% |     1632638      7.29%     75.20% |     1592645      7.12%     82.32% |     1473165      6.58%     88.90% |     1321404      5.90%     94.80% |     1163721      5.20%    100.00%
system.ruby.GPUL1Cache_Controller.V.Load::total     22382731                      
system.ruby.GPUL1Cache_Controller.IA.Write_Ack |          32      6.25%      6.25% |          32      6.25%     12.50% |          32      6.25%     18.75% |          32      6.25%     25.00% |          32      6.25%     31.25% |          32      6.25%     37.50% |          32      6.25%     43.75% |          32      6.25%     50.00% |          32      6.25%     56.25% |          32      6.25%     62.50% |          32      6.25%     68.75% |          32      6.25%     75.00% |          32      6.25%     81.25% |          32      6.25%     87.50% |          32      6.25%     93.75% |          32      6.25%    100.00%
system.ruby.GPUL1Cache_Controller.IA.Write_Ack::total          512                      
system.ruby.GPUL1Cache_Controller.IV.Data |         186      4.39%      4.39% |         182      4.29%      8.68% |         210      4.95%     13.63% |         238      5.61%     19.25% |         267      6.30%     25.54% |         295      6.96%     32.50% |         306      7.22%     39.72% |         306      7.22%     46.93% |         306      7.22%     54.15% |         306      7.22%     61.37% |         306      7.22%     68.58% |         306      7.22%     75.80% |         299      7.05%     82.85% |         271      6.39%     89.25% |         242      5.71%     94.95% |         214      5.05%    100.00%
system.ruby.GPUL1Cache_Controller.IV.Data::total         4240                      
system.ruby.GPUL2Cache_Controller.Get            4507      0.00%      0.00%
system.ruby.GPUL2Cache_Controller.Store           512      0.00%      0.00%
system.ruby.GPUL2Cache_Controller.Other_GETX         1465      0.00%      0.00%
system.ruby.GPUL2Cache_Controller.Other_GETS         2343      0.00%      0.00%
system.ruby.GPUL2Cache_Controller.Ack             939      0.00%      0.00%
system.ruby.GPUL2Cache_Controller.Shared_Data            5      0.00%      0.00%
system.ruby.GPUL2Cache_Controller.Exclusive_Data          470      0.00%      0.00%
system.ruby.GPUL2Cache_Controller.All_acks            5      0.00%      0.00%
system.ruby.GPUL2Cache_Controller.All_acks_no_sharers          470      0.00%      0.00%
system.ruby.GPUL2Cache_Controller.I.Get           347      0.00%      0.00%
system.ruby.GPUL2Cache_Controller.I.Store          128      0.00%      0.00%
system.ruby.GPUL2Cache_Controller.I.Other_GETX         1463      0.00%      0.00%
system.ruby.GPUL2Cache_Controller.I.Other_GETS         2213      0.00%      0.00%
system.ruby.GPUL2Cache_Controller.S.Get            60      0.00%      0.00%
system.ruby.GPUL2Cache_Controller.O.Other_GETX            2      0.00%      0.00%
system.ruby.GPUL2Cache_Controller.M.Get          3670      0.00%      0.00%
system.ruby.GPUL2Cache_Controller.M.Other_GETS            2      0.00%      0.00%
system.ruby.GPUL2Cache_Controller.MM.Store          384      0.00%      0.00%
system.ruby.GPUL2Cache_Controller.MM.Other_GETS          128      0.00%      0.00%
system.ruby.GPUL2Cache_Controller.IM.Ack          251      0.00%      0.00%
system.ruby.GPUL2Cache_Controller.IM.Exclusive_Data          128      0.00%      0.00%
system.ruby.GPUL2Cache_Controller.IS.Get          267      0.00%      0.00%
system.ruby.GPUL2Cache_Controller.IS.Ack          687      0.00%      0.00%
system.ruby.GPUL2Cache_Controller.IS.Shared_Data            5      0.00%      0.00%
system.ruby.GPUL2Cache_Controller.IS.Exclusive_Data          342      0.00%      0.00%
system.ruby.GPUL2Cache_Controller.SS.Get           15      0.00%      0.00%
system.ruby.GPUL2Cache_Controller.SS.All_acks            5      0.00%      0.00%
system.ruby.GPUL2Cache_Controller.M_W.Get          148      0.00%      0.00%
system.ruby.GPUL2Cache_Controller.M_W.Ack            1      0.00%      0.00%
system.ruby.GPUL2Cache_Controller.M_W.All_acks_no_sharers          342      0.00%      0.00%
system.ruby.GPUL2Cache_Controller.MM_W.All_acks_no_sharers          128      0.00%      0.00%

---------- End Simulation Statistics   ----------
