
---------- Begin Simulation Statistics ----------
sim_seconds                                  0.139900                       # Number of seconds simulated
sim_ticks                                139899644500                       # Number of ticks simulated
final_tick                               139899644500                       # Number of ticks from beginning of simulation (restored from checkpoints and never reset)
sim_freq                                 1000000000000                       # Frequency of simulated ticks
host_inst_rate                                  29075                       # Simulator instruction rate (inst/s)
host_op_rate                                    53896                       # Simulator op (including micro ops) rate (op/s)
host_tick_rate                               63930053                       # Simulator tick rate (ticks/s)
host_mem_usage                                4874684                       # Number of bytes of host memory used
host_seconds                                  2188.32                       # Real time elapsed on the host
sim_insts                                    63626132                       # Number of instructions simulated
sim_ops                                     117942811                       # Number of ops (including micro ops) simulated
system.voltage_domain.voltage                       1                       # Voltage in Volts
system.clk_domain.clock                          1000                       # Clock period in ticks
system.mem_ctrls.bytes_read::ruby.dir_cntrl0    134528640                       # Number of bytes read from this memory
system.mem_ctrls.bytes_read::total          134528640                       # Number of bytes read from this memory
system.mem_ctrls.bytes_written::ruby.dir_cntrl0     86595584                       # Number of bytes written to this memory
system.mem_ctrls.bytes_written::total        86595584                       # Number of bytes written to this memory
system.mem_ctrls.num_reads::ruby.dir_cntrl0      1051005                       # Number of read requests responded to by this memory
system.mem_ctrls.num_reads::total             1051005                       # Number of read requests responded to by this memory
system.mem_ctrls.num_writes::ruby.dir_cntrl0       676528                       # Number of write requests responded to by this memory
system.mem_ctrls.num_writes::total             676528                       # Number of write requests responded to by this memory
system.mem_ctrls.bw_read::ruby.dir_cntrl0    961608162                       # Total read bandwidth from this memory (bytes/s)
system.mem_ctrls.bw_read::total             961608162                       # Total read bandwidth from this memory (bytes/s)
system.mem_ctrls.bw_write::ruby.dir_cntrl0    618983589                       # Write bandwidth from this memory (bytes/s)
system.mem_ctrls.bw_write::total            618983589                       # Write bandwidth from this memory (bytes/s)
system.mem_ctrls.bw_total::ruby.dir_cntrl0   1580591751                       # Total bandwidth to/from this memory (bytes/s)
system.mem_ctrls.bw_total::total           1580591751                       # Total bandwidth to/from this memory (bytes/s)
system.mem_ctrls.readReqs                     1051005                       # Number of read requests accepted
system.mem_ctrls.writeReqs                     676528                       # Number of write requests accepted
system.mem_ctrls.readBursts                   2102010                       # Number of DRAM read bursts, including those serviced by the write queue
system.mem_ctrls.writeBursts                  1353056                       # Number of DRAM write bursts, including those merged in the write queue
system.mem_ctrls.bytesReadDRAM              134487424                       # Total number of bytes read from DRAM
system.mem_ctrls.bytesReadWrQ                   41216                       # Total number of bytes read from write queue
system.mem_ctrls.bytesWritten                86594368                       # Total number of bytes written to DRAM
system.mem_ctrls.bytesReadSys               134528640                       # Total read bytes from the system interface side
system.mem_ctrls.bytesWrittenSys             86595584                       # Total written bytes from the system interface side
system.mem_ctrls.servicedByWrQ                    644                       # Number of DRAM read bursts serviced by the write queue
system.mem_ctrls.mergedWrBursts                     0                       # Number of DRAM write bursts merged with an existing one
system.mem_ctrls.neitherReadNorWriteReqs            0                       # Number of requests that are neither read nor write
system.mem_ctrls.perBankRdBursts::0            130858                       # Per bank write bursts
system.mem_ctrls.perBankRdBursts::1            123158                       # Per bank write bursts
system.mem_ctrls.perBankRdBursts::2            129643                       # Per bank write bursts
system.mem_ctrls.perBankRdBursts::3            132544                       # Per bank write bursts
system.mem_ctrls.perBankRdBursts::4            133436                       # Per bank write bursts
system.mem_ctrls.perBankRdBursts::5            132990                       # Per bank write bursts
system.mem_ctrls.perBankRdBursts::6            132454                       # Per bank write bursts
system.mem_ctrls.perBankRdBursts::7            132428                       # Per bank write bursts
system.mem_ctrls.perBankRdBursts::8            131138                       # Per bank write bursts
system.mem_ctrls.perBankRdBursts::9            130136                       # Per bank write bursts
system.mem_ctrls.perBankRdBursts::10           131320                       # Per bank write bursts
system.mem_ctrls.perBankRdBursts::11           131054                       # Per bank write bursts
system.mem_ctrls.perBankRdBursts::12           131958                       # Per bank write bursts
system.mem_ctrls.perBankRdBursts::13           133078                       # Per bank write bursts
system.mem_ctrls.perBankRdBursts::14           133245                       # Per bank write bursts
system.mem_ctrls.perBankRdBursts::15           131926                       # Per bank write bursts
system.mem_ctrls.perBankWrBursts::0             84470                       # Per bank write bursts
system.mem_ctrls.perBankWrBursts::1             78368                       # Per bank write bursts
system.mem_ctrls.perBankWrBursts::2             82936                       # Per bank write bursts
system.mem_ctrls.perBankWrBursts::3             85371                       # Per bank write bursts
system.mem_ctrls.perBankWrBursts::4             86066                       # Per bank write bursts
system.mem_ctrls.perBankWrBursts::5             85464                       # Per bank write bursts
system.mem_ctrls.perBankWrBursts::6             85424                       # Per bank write bursts
system.mem_ctrls.perBankWrBursts::7             85490                       # Per bank write bursts
system.mem_ctrls.perBankWrBursts::8             84818                       # Per bank write bursts
system.mem_ctrls.perBankWrBursts::9             84642                       # Per bank write bursts
system.mem_ctrls.perBankWrBursts::10            84610                       # Per bank write bursts
system.mem_ctrls.perBankWrBursts::11            84264                       # Per bank write bursts
system.mem_ctrls.perBankWrBursts::12            84756                       # Per bank write bursts
system.mem_ctrls.perBankWrBursts::13            85610                       # Per bank write bursts
system.mem_ctrls.perBankWrBursts::14            85674                       # Per bank write bursts
system.mem_ctrls.perBankWrBursts::15            85074                       # Per bank write bursts
system.mem_ctrls.numRdRetry                   1821663                       # Number of times read queue was full causing retry
system.mem_ctrls.numWrRetry                    114440                       # Number of times write queue was full causing retry
system.mem_ctrls.totGap                  139899535500                       # Total gap between requests
system.mem_ctrls.readPktSize::0                     0                       # Read request sizes (log2)
system.mem_ctrls.readPktSize::1                     0                       # Read request sizes (log2)
system.mem_ctrls.readPktSize::2                     0                       # Read request sizes (log2)
system.mem_ctrls.readPktSize::3                     0                       # Read request sizes (log2)
system.mem_ctrls.readPktSize::4                     0                       # Read request sizes (log2)
system.mem_ctrls.readPktSize::5                     0                       # Read request sizes (log2)
system.mem_ctrls.readPktSize::6               2102010                       # Read request sizes (log2)
system.mem_ctrls.writePktSize::0                    0                       # Write request sizes (log2)
system.mem_ctrls.writePktSize::1                    0                       # Write request sizes (log2)
system.mem_ctrls.writePktSize::2                    0                       # Write request sizes (log2)
system.mem_ctrls.writePktSize::3                    0                       # Write request sizes (log2)
system.mem_ctrls.writePktSize::4                    0                       # Write request sizes (log2)
system.mem_ctrls.writePktSize::5                    0                       # Write request sizes (log2)
system.mem_ctrls.writePktSize::6              1353056                       # Write request sizes (log2)
system.mem_ctrls.rdQLenPdf::0                  126301                       # What read queue length does an incoming req see
system.mem_ctrls.rdQLenPdf::1                  126676                       # What read queue length does an incoming req see
system.mem_ctrls.rdQLenPdf::2                    2291                       # What read queue length does an incoming req see
system.mem_ctrls.rdQLenPdf::3                    2303                       # What read queue length does an incoming req see
system.mem_ctrls.rdQLenPdf::4                    1496                       # What read queue length does an incoming req see
system.mem_ctrls.rdQLenPdf::5                    1378                       # What read queue length does an incoming req see
system.mem_ctrls.rdQLenPdf::6                     973                       # What read queue length does an incoming req see
system.mem_ctrls.rdQLenPdf::7                     878                       # What read queue length does an incoming req see
system.mem_ctrls.rdQLenPdf::8                     655                       # What read queue length does an incoming req see
system.mem_ctrls.rdQLenPdf::9                     654                       # What read queue length does an incoming req see
system.mem_ctrls.rdQLenPdf::10                    516                       # What read queue length does an incoming req see
system.mem_ctrls.rdQLenPdf::11                    470                       # What read queue length does an incoming req see
system.mem_ctrls.rdQLenPdf::12                    388                       # What read queue length does an incoming req see
system.mem_ctrls.rdQLenPdf::13                    359                       # What read queue length does an incoming req see
system.mem_ctrls.rdQLenPdf::14                    299                       # What read queue length does an incoming req see
system.mem_ctrls.rdQLenPdf::15                    282                       # What read queue length does an incoming req see
system.mem_ctrls.rdQLenPdf::16                    258                       # What read queue length does an incoming req see
system.mem_ctrls.rdQLenPdf::17                    249                       # What read queue length does an incoming req see
system.mem_ctrls.rdQLenPdf::18                    216                       # What read queue length does an incoming req see
system.mem_ctrls.rdQLenPdf::19                    207                       # What read queue length does an incoming req see
system.mem_ctrls.rdQLenPdf::20                    196                       # What read queue length does an incoming req see
system.mem_ctrls.rdQLenPdf::21                    203                       # What read queue length does an incoming req see
system.mem_ctrls.rdQLenPdf::22                    227                       # What read queue length does an incoming req see
system.mem_ctrls.rdQLenPdf::23                    229                       # What read queue length does an incoming req see
system.mem_ctrls.rdQLenPdf::24                    336                       # What read queue length does an incoming req see
system.mem_ctrls.rdQLenPdf::25                    398                       # What read queue length does an incoming req see
system.mem_ctrls.rdQLenPdf::26                    716                       # What read queue length does an incoming req see
system.mem_ctrls.rdQLenPdf::27                    825                       # What read queue length does an incoming req see
system.mem_ctrls.rdQLenPdf::28                   1506                       # What read queue length does an incoming req see
system.mem_ctrls.rdQLenPdf::29                   1704                       # What read queue length does an incoming req see
system.mem_ctrls.rdQLenPdf::30                 914310                       # What read queue length does an incoming req see
system.mem_ctrls.rdQLenPdf::31                 913867                       # What read queue length does an incoming req see
system.mem_ctrls.wrQLenPdf::0                       1                       # What write queue length does an incoming req see
system.mem_ctrls.wrQLenPdf::1                       1                       # What write queue length does an incoming req see
system.mem_ctrls.wrQLenPdf::2                       1                       # What write queue length does an incoming req see
system.mem_ctrls.wrQLenPdf::3                       1                       # What write queue length does an incoming req see
system.mem_ctrls.wrQLenPdf::4                       1                       # What write queue length does an incoming req see
system.mem_ctrls.wrQLenPdf::5                       1                       # What write queue length does an incoming req see
system.mem_ctrls.wrQLenPdf::6                       1                       # What write queue length does an incoming req see
system.mem_ctrls.wrQLenPdf::7                       1                       # What write queue length does an incoming req see
system.mem_ctrls.wrQLenPdf::8                       1                       # What write queue length does an incoming req see
system.mem_ctrls.wrQLenPdf::9                       1                       # What write queue length does an incoming req see
system.mem_ctrls.wrQLenPdf::10                      1                       # What write queue length does an incoming req see
system.mem_ctrls.wrQLenPdf::11                      1                       # What write queue length does an incoming req see
system.mem_ctrls.wrQLenPdf::12                      1                       # What write queue length does an incoming req see
system.mem_ctrls.wrQLenPdf::13                      1                       # What write queue length does an incoming req see
system.mem_ctrls.wrQLenPdf::14                      1                       # What write queue length does an incoming req see
system.mem_ctrls.wrQLenPdf::15                   2199                       # What write queue length does an incoming req see
system.mem_ctrls.wrQLenPdf::16                   2419                       # What write queue length does an incoming req see
system.mem_ctrls.wrQLenPdf::17                   3998                       # What write queue length does an incoming req see
system.mem_ctrls.wrQLenPdf::18                   4235                       # What write queue length does an incoming req see
system.mem_ctrls.wrQLenPdf::19                   5178                       # What write queue length does an incoming req see
system.mem_ctrls.wrQLenPdf::20                   5183                       # What write queue length does an incoming req see
system.mem_ctrls.wrQLenPdf::21                   4903                       # What write queue length does an incoming req see
system.mem_ctrls.wrQLenPdf::22                   4907                       # What write queue length does an incoming req see
system.mem_ctrls.wrQLenPdf::23                   4844                       # What write queue length does an incoming req see
system.mem_ctrls.wrQLenPdf::24                   4827                       # What write queue length does an incoming req see
system.mem_ctrls.wrQLenPdf::25                   4821                       # What write queue length does an incoming req see
system.mem_ctrls.wrQLenPdf::26                   4800                       # What write queue length does an incoming req see
system.mem_ctrls.wrQLenPdf::27                   4784                       # What write queue length does an incoming req see
system.mem_ctrls.wrQLenPdf::28                   4798                       # What write queue length does an incoming req see
system.mem_ctrls.wrQLenPdf::29                   4778                       # What write queue length does an incoming req see
system.mem_ctrls.wrQLenPdf::30                   4749                       # What write queue length does an incoming req see
system.mem_ctrls.wrQLenPdf::31                   4746                       # What write queue length does an incoming req see
system.mem_ctrls.wrQLenPdf::32                   4743                       # What write queue length does an incoming req see
system.mem_ctrls.wrQLenPdf::33                    435                       # What write queue length does an incoming req see
system.mem_ctrls.wrQLenPdf::34                     26                       # What write queue length does an incoming req see
system.mem_ctrls.wrQLenPdf::35                     16                       # What write queue length does an incoming req see
system.mem_ctrls.wrQLenPdf::36                     15                       # What write queue length does an incoming req see
system.mem_ctrls.wrQLenPdf::37                     13                       # What write queue length does an incoming req see
system.mem_ctrls.wrQLenPdf::38                     13                       # What write queue length does an incoming req see
system.mem_ctrls.wrQLenPdf::39                   5591                       # What write queue length does an incoming req see
system.mem_ctrls.wrQLenPdf::40                   5591                       # What write queue length does an incoming req see
system.mem_ctrls.wrQLenPdf::41                  13980                       # What write queue length does an incoming req see
system.mem_ctrls.wrQLenPdf::42                  13979                       # What write queue length does an incoming req see
system.mem_ctrls.wrQLenPdf::43                  24256                       # What write queue length does an incoming req see
system.mem_ctrls.wrQLenPdf::44                  24256                       # What write queue length does an incoming req see
system.mem_ctrls.wrQLenPdf::45                  40126                       # What write queue length does an incoming req see
system.mem_ctrls.wrQLenPdf::46                  40127                       # What write queue length does an incoming req see
system.mem_ctrls.wrQLenPdf::47                  59709                       # What write queue length does an incoming req see
system.mem_ctrls.wrQLenPdf::48                  60430                       # What write queue length does an incoming req see
system.mem_ctrls.wrQLenPdf::49                  70981                       # What write queue length does an incoming req see
system.mem_ctrls.wrQLenPdf::50                  73251                       # What write queue length does an incoming req see
system.mem_ctrls.wrQLenPdf::51                  80693                       # What write queue length does an incoming req see
system.mem_ctrls.wrQLenPdf::52                  97488                       # What write queue length does an incoming req see
system.mem_ctrls.wrQLenPdf::53                 110107                       # What write queue length does an incoming req see
system.mem_ctrls.wrQLenPdf::54                 159716                       # What write queue length does an incoming req see
system.mem_ctrls.wrQLenPdf::55                 112430                       # What write queue length does an incoming req see
system.mem_ctrls.wrQLenPdf::56                  69916                       # What write queue length does an incoming req see
system.mem_ctrls.wrQLenPdf::57                  41357                       # What write queue length does an incoming req see
system.mem_ctrls.wrQLenPdf::58                  19558                       # What write queue length does an incoming req see
system.mem_ctrls.wrQLenPdf::59                  11379                       # What write queue length does an incoming req see
system.mem_ctrls.wrQLenPdf::60                   7959                       # What write queue length does an incoming req see
system.mem_ctrls.wrQLenPdf::61                   6413                       # What write queue length does an incoming req see
system.mem_ctrls.wrQLenPdf::62                  63534                       # What write queue length does an incoming req see
system.mem_ctrls.wrQLenPdf::63                  58784                       # What write queue length does an incoming req see
system.mem_ctrls.bytesPerActivate::samples      1212329                       # Bytes accessed per row activation
system.mem_ctrls.bytesPerActivate::mean    182.359422                       # Bytes accessed per row activation
system.mem_ctrls.bytesPerActivate::gmean   154.687796                       # Bytes accessed per row activation
system.mem_ctrls.bytesPerActivate::stdev   154.554358                       # Bytes accessed per row activation
system.mem_ctrls.bytesPerActivate::0-127        61897      5.11%      5.11% # Bytes accessed per row activation
system.mem_ctrls.bytesPerActivate::128-255       869306     71.71%     76.81% # Bytes accessed per row activation
system.mem_ctrls.bytesPerActivate::256-383       194343     16.03%     92.84% # Bytes accessed per row activation
system.mem_ctrls.bytesPerActivate::384-511        41119      3.39%     96.23% # Bytes accessed per row activation
system.mem_ctrls.bytesPerActivate::512-639        11609      0.96%     97.19% # Bytes accessed per row activation
system.mem_ctrls.bytesPerActivate::640-767         3239      0.27%     97.46% # Bytes accessed per row activation
system.mem_ctrls.bytesPerActivate::768-895         2212      0.18%     97.64% # Bytes accessed per row activation
system.mem_ctrls.bytesPerActivate::896-1023         1339      0.11%     97.75% # Bytes accessed per row activation
system.mem_ctrls.bytesPerActivate::1024-1151        27265      2.25%    100.00% # Bytes accessed per row activation
system.mem_ctrls.bytesPerActivate::total      1212329                       # Bytes accessed per row activation
system.mem_ctrls.rdPerTurnAround::samples        80626                       # Reads before turning the bus around for writes
system.mem_ctrls.rdPerTurnAround::mean      26.063106                       # Reads before turning the bus around for writes
system.mem_ctrls.rdPerTurnAround::stdev    158.836708                       # Reads before turning the bus around for writes
system.mem_ctrls.rdPerTurnAround::0-1023        80599     99.97%     99.97% # Reads before turning the bus around for writes
system.mem_ctrls.rdPerTurnAround::1024-2047           13      0.02%     99.98% # Reads before turning the bus around for writes
system.mem_ctrls.rdPerTurnAround::2048-3071            4      0.00%     99.99% # Reads before turning the bus around for writes
system.mem_ctrls.rdPerTurnAround::3072-4095            5      0.01%     99.99% # Reads before turning the bus around for writes
system.mem_ctrls.rdPerTurnAround::4096-5119            2      0.00%    100.00% # Reads before turning the bus around for writes
system.mem_ctrls.rdPerTurnAround::21504-22527            1      0.00%    100.00% # Reads before turning the bus around for writes
system.mem_ctrls.rdPerTurnAround::25600-26623            2      0.00%    100.00% # Reads before turning the bus around for writes
system.mem_ctrls.rdPerTurnAround::total         80626                       # Reads before turning the bus around for writes
system.mem_ctrls.wrPerTurnAround::samples        80626                       # Writes before turning the bus around for reads
system.mem_ctrls.wrPerTurnAround::mean      16.781646                       # Writes before turning the bus around for reads
system.mem_ctrls.wrPerTurnAround::gmean     16.138397                       # Writes before turning the bus around for reads
system.mem_ctrls.wrPerTurnAround::stdev     91.056405                       # Writes before turning the bus around for reads
system.mem_ctrls.wrPerTurnAround::0-511         80611     99.98%     99.98% # Writes before turning the bus around for reads
system.mem_ctrls.wrPerTurnAround::512-1023           13      0.02%    100.00% # Writes before turning the bus around for reads
system.mem_ctrls.wrPerTurnAround::17408-17919            1      0.00%    100.00% # Writes before turning the bus around for reads
system.mem_ctrls.wrPerTurnAround::18432-18943            1      0.00%    100.00% # Writes before turning the bus around for reads
system.mem_ctrls.wrPerTurnAround::total         80626                       # Writes before turning the bus around for reads
system.mem_ctrls.totQLat                 557893832958                       # Total ticks spent queuing
system.mem_ctrls.totMemAccLat            597294445458                       # Total ticks spent from burst creation until serviced by the DRAM
system.mem_ctrls.totBusLat                10506830000                       # Total ticks spent in databus transfers
system.mem_ctrls.avgQLat                    265491.03                       # Average queueing delay per DRAM burst
system.mem_ctrls.avgBusLat                    5000.00                       # Average bus latency per DRAM burst
system.mem_ctrls.avgMemAccLat               284241.03                       # Average memory access latency per DRAM burst
system.mem_ctrls.avgRdBW                       961.31                       # Average DRAM read bandwidth in MiByte/s
system.mem_ctrls.avgWrBW                       618.97                       # Average achieved write bandwidth in MiByte/s
system.mem_ctrls.avgRdBWSys                    961.61                       # Average system read bandwidth in MiByte/s
system.mem_ctrls.avgWrBWSys                    618.98                       # Average system write bandwidth in MiByte/s
system.mem_ctrls.peakBW                      12800.00                       # Theoretical peak bandwidth in MiByte/s
system.mem_ctrls.busUtil                        12.35                       # Data bus utilization in percentage
system.mem_ctrls.busUtilRead                     7.51                       # Data bus utilization in percentage for reads
system.mem_ctrls.busUtilWrite                    4.84                       # Data bus utilization in percentage for writes
system.mem_ctrls.avgRdQLen                       6.03                       # Average read queue length when enqueuing
system.mem_ctrls.avgWrQLen                      26.98                       # Average write queue length when enqueuing
system.mem_ctrls.readRowHits                  1336879                       # Number of row buffer hits during reads
system.mem_ctrls.writeRowHits                  905185                       # Number of row buffer hits during writes
system.mem_ctrls.readRowHitRate                 63.62                       # Row buffer hit rate for reads
system.mem_ctrls.writeRowHitRate                66.90                       # Row buffer hit rate for writes
system.mem_ctrls.avgGap                      80982.27                       # Average gap between requests
system.mem_ctrls.pageHitRate                    64.90                       # Row buffer hit rate, read and write combined
system.mem_ctrls_0.actEnergy               4552934400                       # Energy for activate commands per rank (pJ)
system.mem_ctrls_0.preEnergy               2484240000                       # Energy for precharge commands per rank (pJ)
system.mem_ctrls_0.readEnergy              8170164600                       # Energy for read commands per rank (pJ)
system.mem_ctrls_0.writeEnergy             4364740080                       # Energy for write commands per rank (pJ)
system.mem_ctrls_0.refreshEnergy           9137297520                       # Energy for refresh commands per rank (pJ)
system.mem_ctrls_0.actBackEnergy          33234643440                       # Energy for active background per rank (pJ)
system.mem_ctrls_0.preBackEnergy          54784292250                       # Energy for precharge background per rank (pJ)
system.mem_ctrls_0.totalEnergy           116728312290                       # Total energy per rank (pJ)
system.mem_ctrls_0.averagePower            834.394605                       # Core power per rank (mW)
system.mem_ctrls_0.memoryStateTime::IDLE  90852935752                       # Time in different power states
system.mem_ctrls_0.memoryStateTime::REF    4671420000                       # Time in different power states
system.mem_ctrls_0.memoryStateTime::PRE_PDN            0                       # Time in different power states
system.mem_ctrls_0.memoryStateTime::ACT   44371726248                       # Time in different power states
system.mem_ctrls_0.memoryStateTime::ACT_PDN            0                       # Time in different power states
system.mem_ctrls_1.actEnergy               4612106520                       # Energy for activate commands per rank (pJ)
system.mem_ctrls_1.preEnergy               2516526375                       # Energy for precharge commands per rank (pJ)
system.mem_ctrls_1.readEnergy              8219835000                       # Energy for read commands per rank (pJ)
system.mem_ctrls_1.writeEnergy             4402719360                       # Energy for write commands per rank (pJ)
system.mem_ctrls_1.refreshEnergy           9137297520                       # Energy for refresh commands per rank (pJ)
system.mem_ctrls_1.actBackEnergy          33010216200                       # Energy for active background per rank (pJ)
system.mem_ctrls_1.preBackEnergy          54981158250                       # Energy for precharge background per rank (pJ)
system.mem_ctrls_1.totalEnergy           116879859225                       # Total energy per rank (pJ)
system.mem_ctrls_1.averagePower            835.477890                       # Core power per rank (mW)
system.mem_ctrls_1.memoryStateTime::IDLE  91183119750                       # Time in different power states
system.mem_ctrls_1.memoryStateTime::REF    4671420000                       # Time in different power states
system.mem_ctrls_1.memoryStateTime::PRE_PDN            0                       # Time in different power states
system.mem_ctrls_1.memoryStateTime::ACT   44041287750                       # Time in different power states
system.mem_ctrls_1.memoryStateTime::ACT_PDN            0                       # Time in different power states
system.ruby_clk_domain.clock                      500                       # Clock period in ticks
system.ruby.phys_mem.bytes_read::cpu.inst    700761856                       # Number of bytes read from this memory
system.ruby.phys_mem.bytes_read::cpu.data    134877475                       # Number of bytes read from this memory
system.ruby.phys_mem.bytes_read::gpu.ce       6516900                       # Number of bytes read from this memory
system.ruby.phys_mem.bytes_read::gpu.shader_cores00.data      3449984                       # Number of bytes read from this memory
system.ruby.phys_mem.bytes_read::gpu.shader_cores00.inst          528                       # Number of bytes read from this memory
system.ruby.phys_mem.bytes_read::gpu.shader_cores01.data      3577984                       # Number of bytes read from this memory
system.ruby.phys_mem.bytes_read::gpu.shader_cores01.inst          528                       # Number of bytes read from this memory
system.ruby.phys_mem.bytes_read::gpu.shader_cores02.data      3482528                       # Number of bytes read from this memory
system.ruby.phys_mem.bytes_read::gpu.shader_cores02.inst          528                       # Number of bytes read from this memory
system.ruby.phys_mem.bytes_read::gpu.shader_cores03.data      3893952                       # Number of bytes read from this memory
system.ruby.phys_mem.bytes_read::gpu.shader_cores03.inst          528                       # Number of bytes read from this memory
system.ruby.phys_mem.bytes_read::gpu.shader_cores04.data      3475808                       # Number of bytes read from this memory
system.ruby.phys_mem.bytes_read::gpu.shader_cores04.inst          528                       # Number of bytes read from this memory
system.ruby.phys_mem.bytes_read::gpu.shader_cores05.data      3690336                       # Number of bytes read from this memory
system.ruby.phys_mem.bytes_read::gpu.shader_cores05.inst          528                       # Number of bytes read from this memory
system.ruby.phys_mem.bytes_read::gpu.shader_cores06.data      3574912                       # Number of bytes read from this memory
system.ruby.phys_mem.bytes_read::gpu.shader_cores06.inst          528                       # Number of bytes read from this memory
system.ruby.phys_mem.bytes_read::gpu.shader_cores07.data      3410816                       # Number of bytes read from this memory
system.ruby.phys_mem.bytes_read::gpu.shader_cores07.inst          528                       # Number of bytes read from this memory
system.ruby.phys_mem.bytes_read::gpu.shader_cores08.data      3489216                       # Number of bytes read from this memory
system.ruby.phys_mem.bytes_read::gpu.shader_cores08.inst          480                       # Number of bytes read from this memory
system.ruby.phys_mem.bytes_read::gpu.shader_cores09.data      3561056                       # Number of bytes read from this memory
system.ruby.phys_mem.bytes_read::gpu.shader_cores09.inst          528                       # Number of bytes read from this memory
system.ruby.phys_mem.bytes_read::gpu.shader_cores10.data      3615840                       # Number of bytes read from this memory
system.ruby.phys_mem.bytes_read::gpu.shader_cores10.inst          528                       # Number of bytes read from this memory
system.ruby.phys_mem.bytes_read::gpu.shader_cores11.data      3434112                       # Number of bytes read from this memory
system.ruby.phys_mem.bytes_read::gpu.shader_cores11.inst          528                       # Number of bytes read from this memory
system.ruby.phys_mem.bytes_read::gpu.shader_cores12.data      3386656                       # Number of bytes read from this memory
system.ruby.phys_mem.bytes_read::gpu.shader_cores12.inst          528                       # Number of bytes read from this memory
system.ruby.phys_mem.bytes_read::gpu.shader_cores13.data      3452352                       # Number of bytes read from this memory
system.ruby.phys_mem.bytes_read::gpu.shader_cores13.inst          528                       # Number of bytes read from this memory
system.ruby.phys_mem.bytes_read::gpu.shader_cores14.data      3572992                       # Number of bytes read from this memory
system.ruby.phys_mem.bytes_read::gpu.shader_cores14.inst          528                       # Number of bytes read from this memory
system.ruby.phys_mem.bytes_read::gpu.shader_cores15.data      3767360                       # Number of bytes read from this memory
system.ruby.phys_mem.bytes_read::gpu.shader_cores15.inst          528                       # Number of bytes read from this memory
system.ruby.phys_mem.bytes_read::total      899000535                       # Number of bytes read from this memory
system.ruby.phys_mem.bytes_inst_read::cpu.inst    700761856                       # Number of instructions bytes read from this memory
system.ruby.phys_mem.bytes_inst_read::gpu.shader_cores00.inst          528                       # Number of instructions bytes read from this memory
system.ruby.phys_mem.bytes_inst_read::gpu.shader_cores01.inst          528                       # Number of instructions bytes read from this memory
system.ruby.phys_mem.bytes_inst_read::gpu.shader_cores02.inst          528                       # Number of instructions bytes read from this memory
system.ruby.phys_mem.bytes_inst_read::gpu.shader_cores03.inst          528                       # Number of instructions bytes read from this memory
system.ruby.phys_mem.bytes_inst_read::gpu.shader_cores04.inst          528                       # Number of instructions bytes read from this memory
system.ruby.phys_mem.bytes_inst_read::gpu.shader_cores05.inst          528                       # Number of instructions bytes read from this memory
system.ruby.phys_mem.bytes_inst_read::gpu.shader_cores06.inst          528                       # Number of instructions bytes read from this memory
system.ruby.phys_mem.bytes_inst_read::gpu.shader_cores07.inst          528                       # Number of instructions bytes read from this memory
system.ruby.phys_mem.bytes_inst_read::gpu.shader_cores08.inst          480                       # Number of instructions bytes read from this memory
system.ruby.phys_mem.bytes_inst_read::gpu.shader_cores09.inst          528                       # Number of instructions bytes read from this memory
system.ruby.phys_mem.bytes_inst_read::gpu.shader_cores10.inst          528                       # Number of instructions bytes read from this memory
system.ruby.phys_mem.bytes_inst_read::gpu.shader_cores11.inst          528                       # Number of instructions bytes read from this memory
system.ruby.phys_mem.bytes_inst_read::gpu.shader_cores12.inst          528                       # Number of instructions bytes read from this memory
system.ruby.phys_mem.bytes_inst_read::gpu.shader_cores13.inst          528                       # Number of instructions bytes read from this memory
system.ruby.phys_mem.bytes_inst_read::gpu.shader_cores14.inst          528                       # Number of instructions bytes read from this memory
system.ruby.phys_mem.bytes_inst_read::gpu.shader_cores15.inst          528                       # Number of instructions bytes read from this memory
system.ruby.phys_mem.bytes_inst_read::total    700770256                       # Number of instructions bytes read from this memory
system.ruby.phys_mem.bytes_written::cpu.data     27403411                       # Number of bytes written to this memory
system.ruby.phys_mem.bytes_written::gpu.ce      6516900                       # Number of bytes written to this memory
system.ruby.phys_mem.bytes_written::gpu.shader_cores00.data       164180                       # Number of bytes written to this memory
system.ruby.phys_mem.bytes_written::gpu.shader_cores01.data       163656                       # Number of bytes written to this memory
system.ruby.phys_mem.bytes_written::gpu.shader_cores02.data       164978                       # Number of bytes written to this memory
system.ruby.phys_mem.bytes_written::gpu.shader_cores03.data       164432                       # Number of bytes written to this memory
system.ruby.phys_mem.bytes_written::gpu.shader_cores04.data       164386                       # Number of bytes written to this memory
system.ruby.phys_mem.bytes_written::gpu.shader_cores05.data       163774                       # Number of bytes written to this memory
system.ruby.phys_mem.bytes_written::gpu.shader_cores06.data       163308                       # Number of bytes written to this memory
system.ruby.phys_mem.bytes_written::gpu.shader_cores07.data       165126                       # Number of bytes written to this memory
system.ruby.phys_mem.bytes_written::gpu.shader_cores08.data       164108                       # Number of bytes written to this memory
system.ruby.phys_mem.bytes_written::gpu.shader_cores09.data       163746                       # Number of bytes written to this memory
system.ruby.phys_mem.bytes_written::gpu.shader_cores10.data       164326                       # Number of bytes written to this memory
system.ruby.phys_mem.bytes_written::gpu.shader_cores11.data       164416                       # Number of bytes written to this memory
system.ruby.phys_mem.bytes_written::gpu.shader_cores12.data       163938                       # Number of bytes written to this memory
system.ruby.phys_mem.bytes_written::gpu.shader_cores13.data       163840                       # Number of bytes written to this memory
system.ruby.phys_mem.bytes_written::gpu.shader_cores14.data       163188                       # Number of bytes written to this memory
system.ruby.phys_mem.bytes_written::gpu.shader_cores15.data       164804                       # Number of bytes written to this memory
system.ruby.phys_mem.bytes_written::total     36546517                       # Number of bytes written to this memory
system.ruby.phys_mem.num_reads::cpu.inst     87595232                       # Number of read requests responded to by this memory
system.ruby.phys_mem.num_reads::cpu.data     20064180                       # Number of read requests responded to by this memory
system.ruby.phys_mem.num_reads::gpu.ce          50921                       # Number of read requests responded to by this memory
system.ruby.phys_mem.num_reads::gpu.shader_cores00.data       107812                       # Number of read requests responded to by this memory
system.ruby.phys_mem.num_reads::gpu.shader_cores00.inst           33                       # Number of read requests responded to by this memory
system.ruby.phys_mem.num_reads::gpu.shader_cores01.data       111812                       # Number of read requests responded to by this memory
system.ruby.phys_mem.num_reads::gpu.shader_cores01.inst           33                       # Number of read requests responded to by this memory
system.ruby.phys_mem.num_reads::gpu.shader_cores02.data       108829                       # Number of read requests responded to by this memory
system.ruby.phys_mem.num_reads::gpu.shader_cores02.inst           33                       # Number of read requests responded to by this memory
system.ruby.phys_mem.num_reads::gpu.shader_cores03.data       121686                       # Number of read requests responded to by this memory
system.ruby.phys_mem.num_reads::gpu.shader_cores03.inst           33                       # Number of read requests responded to by this memory
system.ruby.phys_mem.num_reads::gpu.shader_cores04.data       108619                       # Number of read requests responded to by this memory
system.ruby.phys_mem.num_reads::gpu.shader_cores04.inst           33                       # Number of read requests responded to by this memory
system.ruby.phys_mem.num_reads::gpu.shader_cores05.data       115323                       # Number of read requests responded to by this memory
system.ruby.phys_mem.num_reads::gpu.shader_cores05.inst           33                       # Number of read requests responded to by this memory
system.ruby.phys_mem.num_reads::gpu.shader_cores06.data       111716                       # Number of read requests responded to by this memory
system.ruby.phys_mem.num_reads::gpu.shader_cores06.inst           33                       # Number of read requests responded to by this memory
system.ruby.phys_mem.num_reads::gpu.shader_cores07.data       106588                       # Number of read requests responded to by this memory
system.ruby.phys_mem.num_reads::gpu.shader_cores07.inst           33                       # Number of read requests responded to by this memory
system.ruby.phys_mem.num_reads::gpu.shader_cores08.data       109038                       # Number of read requests responded to by this memory
system.ruby.phys_mem.num_reads::gpu.shader_cores08.inst           30                       # Number of read requests responded to by this memory
system.ruby.phys_mem.num_reads::gpu.shader_cores09.data       111283                       # Number of read requests responded to by this memory
system.ruby.phys_mem.num_reads::gpu.shader_cores09.inst           33                       # Number of read requests responded to by this memory
system.ruby.phys_mem.num_reads::gpu.shader_cores10.data       112995                       # Number of read requests responded to by this memory
system.ruby.phys_mem.num_reads::gpu.shader_cores10.inst           33                       # Number of read requests responded to by this memory
system.ruby.phys_mem.num_reads::gpu.shader_cores11.data       107316                       # Number of read requests responded to by this memory
system.ruby.phys_mem.num_reads::gpu.shader_cores11.inst           33                       # Number of read requests responded to by this memory
system.ruby.phys_mem.num_reads::gpu.shader_cores12.data       105833                       # Number of read requests responded to by this memory
system.ruby.phys_mem.num_reads::gpu.shader_cores12.inst           33                       # Number of read requests responded to by this memory
system.ruby.phys_mem.num_reads::gpu.shader_cores13.data       107886                       # Number of read requests responded to by this memory
system.ruby.phys_mem.num_reads::gpu.shader_cores13.inst           33                       # Number of read requests responded to by this memory
system.ruby.phys_mem.num_reads::gpu.shader_cores14.data       111656                       # Number of read requests responded to by this memory
system.ruby.phys_mem.num_reads::gpu.shader_cores14.inst           33                       # Number of read requests responded to by this memory
system.ruby.phys_mem.num_reads::gpu.shader_cores15.data       117730                       # Number of read requests responded to by this memory
system.ruby.phys_mem.num_reads::gpu.shader_cores15.inst           33                       # Number of read requests responded to by this memory
system.ruby.phys_mem.num_reads::total       109486980                       # Number of read requests responded to by this memory
system.ruby.phys_mem.num_writes::cpu.data      4933292                       # Number of write requests responded to by this memory
system.ruby.phys_mem.num_writes::gpu.ce         50921                       # Number of write requests responded to by this memory
system.ruby.phys_mem.num_writes::gpu.shader_cores00.data        41048                       # Number of write requests responded to by this memory
system.ruby.phys_mem.num_writes::gpu.shader_cores01.data        40920                       # Number of write requests responded to by this memory
system.ruby.phys_mem.num_writes::gpu.shader_cores02.data        41246                       # Number of write requests responded to by this memory
system.ruby.phys_mem.num_writes::gpu.shader_cores03.data        41111                       # Number of write requests responded to by this memory
system.ruby.phys_mem.num_writes::gpu.shader_cores04.data        41101                       # Number of write requests responded to by this memory
system.ruby.phys_mem.num_writes::gpu.shader_cores05.data        40945                       # Number of write requests responded to by this memory
system.ruby.phys_mem.num_writes::gpu.shader_cores06.data        40833                       # Number of write requests responded to by this memory
system.ruby.phys_mem.num_writes::gpu.shader_cores07.data        41289                       # Number of write requests responded to by this memory
system.ruby.phys_mem.num_writes::gpu.shader_cores08.data        41027                       # Number of write requests responded to by this memory
system.ruby.phys_mem.num_writes::gpu.shader_cores09.data        40938                       # Number of write requests responded to by this memory
system.ruby.phys_mem.num_writes::gpu.shader_cores10.data        41089                       # Number of write requests responded to by this memory
system.ruby.phys_mem.num_writes::gpu.shader_cores11.data        41107                       # Number of write requests responded to by this memory
system.ruby.phys_mem.num_writes::gpu.shader_cores12.data        40986                       # Number of write requests responded to by this memory
system.ruby.phys_mem.num_writes::gpu.shader_cores13.data        40963                       # Number of write requests responded to by this memory
system.ruby.phys_mem.num_writes::gpu.shader_cores14.data        40800                       # Number of write requests responded to by this memory
system.ruby.phys_mem.num_writes::gpu.shader_cores15.data        41207                       # Number of write requests responded to by this memory
system.ruby.phys_mem.num_writes::total        5640823                       # Number of write requests responded to by this memory
system.ruby.phys_mem.bw_read::cpu.inst     5009032428                       # Total read bandwidth from this memory (bytes/s)
system.ruby.phys_mem.bw_read::cpu.data      964101628                       # Total read bandwidth from this memory (bytes/s)
system.ruby.phys_mem.bw_read::gpu.ce         46582677                       # Total read bandwidth from this memory (bytes/s)
system.ruby.phys_mem.bw_read::gpu.shader_cores00.data     24660420                       # Total read bandwidth from this memory (bytes/s)
system.ruby.phys_mem.bw_read::gpu.shader_cores00.inst         3774                       # Total read bandwidth from this memory (bytes/s)
system.ruby.phys_mem.bw_read::gpu.shader_cores01.data     25575362                       # Total read bandwidth from this memory (bytes/s)
system.ruby.phys_mem.bw_read::gpu.shader_cores01.inst         3774                       # Total read bandwidth from this memory (bytes/s)
system.ruby.phys_mem.bw_read::gpu.shader_cores02.data     24893044                       # Total read bandwidth from this memory (bytes/s)
system.ruby.phys_mem.bw_read::gpu.shader_cores02.inst         3774                       # Total read bandwidth from this memory (bytes/s)
system.ruby.phys_mem.bw_read::gpu.shader_cores03.data     27833895                       # Total read bandwidth from this memory (bytes/s)
system.ruby.phys_mem.bw_read::gpu.shader_cores03.inst         3774                       # Total read bandwidth from this memory (bytes/s)
system.ruby.phys_mem.bw_read::gpu.shader_cores04.data     24845010                       # Total read bandwidth from this memory (bytes/s)
system.ruby.phys_mem.bw_read::gpu.shader_cores04.inst         3774                       # Total read bandwidth from this memory (bytes/s)
system.ruby.phys_mem.bw_read::gpu.shader_cores05.data     26378452                       # Total read bandwidth from this memory (bytes/s)
system.ruby.phys_mem.bw_read::gpu.shader_cores05.inst         3774                       # Total read bandwidth from this memory (bytes/s)
system.ruby.phys_mem.bw_read::gpu.shader_cores06.data     25553403                       # Total read bandwidth from this memory (bytes/s)
system.ruby.phys_mem.bw_read::gpu.shader_cores06.inst         3774                       # Total read bandwidth from this memory (bytes/s)
system.ruby.phys_mem.bw_read::gpu.shader_cores07.data     24380448                       # Total read bandwidth from this memory (bytes/s)
system.ruby.phys_mem.bw_read::gpu.shader_cores07.inst         3774                       # Total read bandwidth from this memory (bytes/s)
system.ruby.phys_mem.bw_read::gpu.shader_cores08.data     24940850                       # Total read bandwidth from this memory (bytes/s)
system.ruby.phys_mem.bw_read::gpu.shader_cores08.inst         3431                       # Total read bandwidth from this memory (bytes/s)
system.ruby.phys_mem.bw_read::gpu.shader_cores09.data     25454361                       # Total read bandwidth from this memory (bytes/s)
system.ruby.phys_mem.bw_read::gpu.shader_cores09.inst         3774                       # Total read bandwidth from this memory (bytes/s)
system.ruby.phys_mem.bw_read::gpu.shader_cores10.data     25845956                       # Total read bandwidth from this memory (bytes/s)
system.ruby.phys_mem.bw_read::gpu.shader_cores10.inst         3774                       # Total read bandwidth from this memory (bytes/s)
system.ruby.phys_mem.bw_read::gpu.shader_cores11.data     24546967                       # Total read bandwidth from this memory (bytes/s)
system.ruby.phys_mem.bw_read::gpu.shader_cores11.inst         3774                       # Total read bandwidth from this memory (bytes/s)
system.ruby.phys_mem.bw_read::gpu.shader_cores12.data     24207753                       # Total read bandwidth from this memory (bytes/s)
system.ruby.phys_mem.bw_read::gpu.shader_cores12.inst         3774                       # Total read bandwidth from this memory (bytes/s)
system.ruby.phys_mem.bw_read::gpu.shader_cores13.data     24677346                       # Total read bandwidth from this memory (bytes/s)
system.ruby.phys_mem.bw_read::gpu.shader_cores13.inst         3774                       # Total read bandwidth from this memory (bytes/s)
system.ruby.phys_mem.bw_read::gpu.shader_cores14.data     25539679                       # Total read bandwidth from this memory (bytes/s)
system.ruby.phys_mem.bw_read::gpu.shader_cores14.inst         3774                       # Total read bandwidth from this memory (bytes/s)
system.ruby.phys_mem.bw_read::gpu.shader_cores15.data     26929018                       # Total read bandwidth from this memory (bytes/s)
system.ruby.phys_mem.bw_read::gpu.shader_cores15.inst         3774                       # Total read bandwidth from this memory (bytes/s)
system.ruby.phys_mem.bw_read::total        6426038738                       # Total read bandwidth from this memory (bytes/s)
system.ruby.phys_mem.bw_inst_read::cpu.inst   5009032428                       # Instruction read bandwidth from this memory (bytes/s)
system.ruby.phys_mem.bw_inst_read::gpu.shader_cores00.inst         3774                       # Instruction read bandwidth from this memory (bytes/s)
system.ruby.phys_mem.bw_inst_read::gpu.shader_cores01.inst         3774                       # Instruction read bandwidth from this memory (bytes/s)
system.ruby.phys_mem.bw_inst_read::gpu.shader_cores02.inst         3774                       # Instruction read bandwidth from this memory (bytes/s)
system.ruby.phys_mem.bw_inst_read::gpu.shader_cores03.inst         3774                       # Instruction read bandwidth from this memory (bytes/s)
system.ruby.phys_mem.bw_inst_read::gpu.shader_cores04.inst         3774                       # Instruction read bandwidth from this memory (bytes/s)
system.ruby.phys_mem.bw_inst_read::gpu.shader_cores05.inst         3774                       # Instruction read bandwidth from this memory (bytes/s)
system.ruby.phys_mem.bw_inst_read::gpu.shader_cores06.inst         3774                       # Instruction read bandwidth from this memory (bytes/s)
system.ruby.phys_mem.bw_inst_read::gpu.shader_cores07.inst         3774                       # Instruction read bandwidth from this memory (bytes/s)
system.ruby.phys_mem.bw_inst_read::gpu.shader_cores08.inst         3431                       # Instruction read bandwidth from this memory (bytes/s)
system.ruby.phys_mem.bw_inst_read::gpu.shader_cores09.inst         3774                       # Instruction read bandwidth from this memory (bytes/s)
system.ruby.phys_mem.bw_inst_read::gpu.shader_cores10.inst         3774                       # Instruction read bandwidth from this memory (bytes/s)
system.ruby.phys_mem.bw_inst_read::gpu.shader_cores11.inst         3774                       # Instruction read bandwidth from this memory (bytes/s)
system.ruby.phys_mem.bw_inst_read::gpu.shader_cores12.inst         3774                       # Instruction read bandwidth from this memory (bytes/s)
system.ruby.phys_mem.bw_inst_read::gpu.shader_cores13.inst         3774                       # Instruction read bandwidth from this memory (bytes/s)
system.ruby.phys_mem.bw_inst_read::gpu.shader_cores14.inst         3774                       # Instruction read bandwidth from this memory (bytes/s)
system.ruby.phys_mem.bw_inst_read::gpu.shader_cores15.inst         3774                       # Instruction read bandwidth from this memory (bytes/s)
system.ruby.phys_mem.bw_inst_read::total   5009092471                       # Instruction read bandwidth from this memory (bytes/s)
system.ruby.phys_mem.bw_write::cpu.data     195879061                       # Write bandwidth from this memory (bytes/s)
system.ruby.phys_mem.bw_write::gpu.ce        46582677                       # Write bandwidth from this memory (bytes/s)
system.ruby.phys_mem.bw_write::gpu.shader_cores00.data      1173556                       # Write bandwidth from this memory (bytes/s)
system.ruby.phys_mem.bw_write::gpu.shader_cores01.data      1169810                       # Write bandwidth from this memory (bytes/s)
system.ruby.phys_mem.bw_write::gpu.shader_cores02.data      1179260                       # Write bandwidth from this memory (bytes/s)
system.ruby.phys_mem.bw_write::gpu.shader_cores03.data      1175357                       # Write bandwidth from this memory (bytes/s)
system.ruby.phys_mem.bw_write::gpu.shader_cores04.data      1175028                       # Write bandwidth from this memory (bytes/s)
system.ruby.phys_mem.bw_write::gpu.shader_cores05.data      1170653                       # Write bandwidth from this memory (bytes/s)
system.ruby.phys_mem.bw_write::gpu.shader_cores06.data      1167322                       # Write bandwidth from this memory (bytes/s)
system.ruby.phys_mem.bw_write::gpu.shader_cores07.data      1180318                       # Write bandwidth from this memory (bytes/s)
system.ruby.phys_mem.bw_write::gpu.shader_cores08.data      1173041                       # Write bandwidth from this memory (bytes/s)
system.ruby.phys_mem.bw_write::gpu.shader_cores09.data      1170453                       # Write bandwidth from this memory (bytes/s)
system.ruby.phys_mem.bw_write::gpu.shader_cores10.data      1174599                       # Write bandwidth from this memory (bytes/s)
system.ruby.phys_mem.bw_write::gpu.shader_cores11.data      1175242                       # Write bandwidth from this memory (bytes/s)
system.ruby.phys_mem.bw_write::gpu.shader_cores12.data      1171826                       # Write bandwidth from this memory (bytes/s)
system.ruby.phys_mem.bw_write::gpu.shader_cores13.data      1171125                       # Write bandwidth from this memory (bytes/s)
system.ruby.phys_mem.bw_write::gpu.shader_cores14.data      1166465                       # Write bandwidth from this memory (bytes/s)
system.ruby.phys_mem.bw_write::gpu.shader_cores15.data      1178016                       # Write bandwidth from this memory (bytes/s)
system.ruby.phys_mem.bw_write::total        261233809                       # Write bandwidth from this memory (bytes/s)
system.ruby.phys_mem.bw_total::cpu.inst    5009032428                       # Total bandwidth to/from this memory (bytes/s)
system.ruby.phys_mem.bw_total::cpu.data    1159980689                       # Total bandwidth to/from this memory (bytes/s)
system.ruby.phys_mem.bw_total::gpu.ce        93165355                       # Total bandwidth to/from this memory (bytes/s)
system.ruby.phys_mem.bw_total::gpu.shader_cores00.data     25833976                       # Total bandwidth to/from this memory (bytes/s)
system.ruby.phys_mem.bw_total::gpu.shader_cores00.inst         3774                       # Total bandwidth to/from this memory (bytes/s)
system.ruby.phys_mem.bw_total::gpu.shader_cores01.data     26745172                       # Total bandwidth to/from this memory (bytes/s)
system.ruby.phys_mem.bw_total::gpu.shader_cores01.inst         3774                       # Total bandwidth to/from this memory (bytes/s)
system.ruby.phys_mem.bw_total::gpu.shader_cores02.data     26072304                       # Total bandwidth to/from this memory (bytes/s)
system.ruby.phys_mem.bw_total::gpu.shader_cores02.inst         3774                       # Total bandwidth to/from this memory (bytes/s)
system.ruby.phys_mem.bw_total::gpu.shader_cores03.data     29009252                       # Total bandwidth to/from this memory (bytes/s)
system.ruby.phys_mem.bw_total::gpu.shader_cores03.inst         3774                       # Total bandwidth to/from this memory (bytes/s)
system.ruby.phys_mem.bw_total::gpu.shader_cores04.data     26020038                       # Total bandwidth to/from this memory (bytes/s)
system.ruby.phys_mem.bw_total::gpu.shader_cores04.inst         3774                       # Total bandwidth to/from this memory (bytes/s)
system.ruby.phys_mem.bw_total::gpu.shader_cores05.data     27549105                       # Total bandwidth to/from this memory (bytes/s)
system.ruby.phys_mem.bw_total::gpu.shader_cores05.inst         3774                       # Total bandwidth to/from this memory (bytes/s)
system.ruby.phys_mem.bw_total::gpu.shader_cores06.data     26720726                       # Total bandwidth to/from this memory (bytes/s)
system.ruby.phys_mem.bw_total::gpu.shader_cores06.inst         3774                       # Total bandwidth to/from this memory (bytes/s)
system.ruby.phys_mem.bw_total::gpu.shader_cores07.data     25560765                       # Total bandwidth to/from this memory (bytes/s)
system.ruby.phys_mem.bw_total::gpu.shader_cores07.inst         3774                       # Total bandwidth to/from this memory (bytes/s)
system.ruby.phys_mem.bw_total::gpu.shader_cores08.data     26113891                       # Total bandwidth to/from this memory (bytes/s)
system.ruby.phys_mem.bw_total::gpu.shader_cores08.inst         3431                       # Total bandwidth to/from this memory (bytes/s)
system.ruby.phys_mem.bw_total::gpu.shader_cores09.data     26624814                       # Total bandwidth to/from this memory (bytes/s)
system.ruby.phys_mem.bw_total::gpu.shader_cores09.inst         3774                       # Total bandwidth to/from this memory (bytes/s)
system.ruby.phys_mem.bw_total::gpu.shader_cores10.data     27020555                       # Total bandwidth to/from this memory (bytes/s)
system.ruby.phys_mem.bw_total::gpu.shader_cores10.inst         3774                       # Total bandwidth to/from this memory (bytes/s)
system.ruby.phys_mem.bw_total::gpu.shader_cores11.data     25722210                       # Total bandwidth to/from this memory (bytes/s)
system.ruby.phys_mem.bw_total::gpu.shader_cores11.inst         3774                       # Total bandwidth to/from this memory (bytes/s)
system.ruby.phys_mem.bw_total::gpu.shader_cores12.data     25379578                       # Total bandwidth to/from this memory (bytes/s)
system.ruby.phys_mem.bw_total::gpu.shader_cores12.inst         3774                       # Total bandwidth to/from this memory (bytes/s)
system.ruby.phys_mem.bw_total::gpu.shader_cores13.data     25848472                       # Total bandwidth to/from this memory (bytes/s)
system.ruby.phys_mem.bw_total::gpu.shader_cores13.inst         3774                       # Total bandwidth to/from this memory (bytes/s)
system.ruby.phys_mem.bw_total::gpu.shader_cores14.data     26706144                       # Total bandwidth to/from this memory (bytes/s)
system.ruby.phys_mem.bw_total::gpu.shader_cores14.inst         3774                       # Total bandwidth to/from this memory (bytes/s)
system.ruby.phys_mem.bw_total::gpu.shader_cores15.data     28107034                       # Total bandwidth to/from this memory (bytes/s)
system.ruby.phys_mem.bw_total::gpu.shader_cores15.inst         3774                       # Total bandwidth to/from this memory (bytes/s)
system.ruby.phys_mem.bw_total::total       6687272547                       # Total bandwidth to/from this memory (bytes/s)
system.cpu_voltage_domain.voltage                   1                       # Voltage in Volts
system.cpu_clk_domain.clock                       500                       # Clock period in ticks
system.cpu.apic_clk_domain.clock                 8000                       # Clock period in ticks
system.cpu.workload.num_syscalls                  205                       # Number of system calls
system.cpu.numCycles                        279799289                       # number of cpu cycles simulated
system.cpu.numWorkItemsStarted                      0                       # number of work items this cpu started
system.cpu.numWorkItemsCompleted                    0                       # number of work items this cpu completed
system.cpu.committedInsts                    63626132                       # Number of instructions committed
system.cpu.committedOps                     117942811                       # Number of ops (including micro ops) committed
system.cpu.num_int_alu_accesses              79559252                       # Number of integer alu accesses
system.cpu.num_fp_alu_accesses               57978146                       # Number of float alu accesses
system.cpu.num_func_calls                      242722                       # number of times a function call or return occured
system.cpu.num_conditional_control_insts      5235113                       # number of instructions that are conditional controls
system.cpu.num_int_insts                     79559252                       # number of integer instructions
system.cpu.num_fp_insts                      57978146                       # number of float instructions
system.cpu.num_int_register_reads           159901300                       # number of times the integer registers were read
system.cpu.num_int_register_writes           55710906                       # number of times the integer registers were written
system.cpu.num_fp_register_reads             92693708                       # number of times the floating registers were read
system.cpu.num_fp_register_writes            52502410                       # number of times the floating registers were written
system.cpu.num_cc_register_reads             32884544                       # number of times the CC registers were read
system.cpu.num_cc_register_writes            33216679                       # number of times the CC registers were written
system.cpu.num_mem_refs                      24821093                       # number of memory refs
system.cpu.num_load_insts                    19893708                       # Number of load instructions
system.cpu.num_store_insts                    4927385                       # Number of store instructions
system.cpu.num_idle_cycles               35629724.023745                       # Number of idle cycles
system.cpu.num_busy_cycles               244169564.976255                       # Number of busy cycles
system.cpu.not_idle_fraction                 0.872660                       # Percentage of non-idle cycles
system.cpu.idle_fraction                     0.127340                       # Percentage of idle cycles
system.cpu.Branches                           5686236                       # Number of branches fetched
system.cpu.op_class::No_OpClass                174699      0.15%      0.15% # Class of executed instruction
system.cpu.op_class::IntAlu                  55652197     47.19%     47.33% # Class of executed instruction
system.cpu.op_class::IntMult                   827239      0.70%     48.04% # Class of executed instruction
system.cpu.op_class::IntDiv                    341930      0.29%     48.33% # Class of executed instruction
system.cpu.op_class::FloatAdd                36125653     30.63%     78.95% # Class of executed instruction
system.cpu.op_class::FloatCmp                       0      0.00%     78.95% # Class of executed instruction
system.cpu.op_class::FloatCvt                       0      0.00%     78.95% # Class of executed instruction
system.cpu.op_class::FloatMult                      0      0.00%     78.95% # Class of executed instruction
system.cpu.op_class::FloatDiv                       0      0.00%     78.95% # Class of executed instruction
system.cpu.op_class::FloatSqrt                      0      0.00%     78.95% # Class of executed instruction
system.cpu.op_class::SimdAdd                        0      0.00%     78.95% # Class of executed instruction
system.cpu.op_class::SimdAddAcc                     0      0.00%     78.95% # Class of executed instruction
system.cpu.op_class::SimdAlu                        0      0.00%     78.95% # Class of executed instruction
system.cpu.op_class::SimdCmp                        0      0.00%     78.95% # Class of executed instruction
system.cpu.op_class::SimdCvt                        0      0.00%     78.95% # Class of executed instruction
system.cpu.op_class::SimdMisc                       0      0.00%     78.95% # Class of executed instruction
system.cpu.op_class::SimdMult                       0      0.00%     78.95% # Class of executed instruction
system.cpu.op_class::SimdMultAcc                    0      0.00%     78.95% # Class of executed instruction
system.cpu.op_class::SimdShift                      0      0.00%     78.95% # Class of executed instruction
system.cpu.op_class::SimdShiftAcc                   0      0.00%     78.95% # Class of executed instruction
system.cpu.op_class::SimdSqrt                       0      0.00%     78.95% # Class of executed instruction
system.cpu.op_class::SimdFloatAdd                   0      0.00%     78.95% # Class of executed instruction
system.cpu.op_class::SimdFloatAlu                   0      0.00%     78.95% # Class of executed instruction
system.cpu.op_class::SimdFloatCmp                   0      0.00%     78.95% # Class of executed instruction
system.cpu.op_class::SimdFloatCvt                   0      0.00%     78.95% # Class of executed instruction
system.cpu.op_class::SimdFloatDiv                   0      0.00%     78.95% # Class of executed instruction
system.cpu.op_class::SimdFloatMisc                  0      0.00%     78.95% # Class of executed instruction
system.cpu.op_class::SimdFloatMult                  0      0.00%     78.95% # Class of executed instruction
system.cpu.op_class::SimdFloatMultAcc               0      0.00%     78.95% # Class of executed instruction
system.cpu.op_class::SimdFloatSqrt                  0      0.00%     78.95% # Class of executed instruction
system.cpu.op_class::MemRead                 19893708     16.87%     95.82% # Class of executed instruction
system.cpu.op_class::MemWrite                 4927385      4.18%    100.00% # Class of executed instruction
system.cpu.op_class::IprAccess                      0      0.00%    100.00% # Class of executed instruction
system.cpu.op_class::InstPrefetch                   0      0.00%    100.00% # Class of executed instruction
system.cpu.op_class::total                  117942811                       # Class of executed instruction
system.gpu.clk_domain.voltage_domain.voltage            1                       # Voltage in Volts
system.gpu.clk_domain.clock                      1429                       # Clock period in ticks
system.gpu.dram_wrapper.clk_domain.clock          541                       # Clock period in ticks
system.gpu.icnt_wrapper.clk_domain.clock         2858                       # Clock period in ticks
system.ruby.delayHist::bucket_size               2048                       # delay histogram for all message
system.ruby.delayHist::max_bucket               20479                       # delay histogram for all message
system.ruby.delayHist::samples                1906340                       # delay histogram for all message
system.ruby.delayHist::mean               3097.415922                       # delay histogram for all message
system.ruby.delayHist::stdev              5196.752975                       # delay histogram for all message
system.ruby.delayHist                    |     1405060     73.70%     73.70% |        3488      0.18%     73.89% |        3348      0.18%     74.06% |        6951      0.36%     74.43% |       13798      0.72%     75.15% |      450365     23.62%     98.78% |       23330      1.22%    100.00% |           0      0.00%    100.00% |           0      0.00%    100.00% |           0      0.00%    100.00% # delay histogram for all message
system.ruby.delayHist::total                  1906340                       # delay histogram for all message
system.ruby.outstanding_req_hist::bucket_size           16                      
system.ruby.outstanding_req_hist::max_bucket          159                      
system.ruby.outstanding_req_hist::samples    115127803                      
system.ruby.outstanding_req_hist::mean       2.528226                      
system.ruby.outstanding_req_hist::gmean      1.098100                      
system.ruby.outstanding_req_hist::stdev     10.711280                      
system.ruby.outstanding_req_hist         |   112594730     97.80%     97.80% |       13019      0.01%     97.81% |      338435      0.29%     98.11% |      881118      0.77%     98.87% |      465055      0.40%     99.27% |      162962      0.14%     99.42% |      572945      0.50%     99.91% |        8863      0.01%     99.92% |       90676      0.08%    100.00% |           0      0.00%    100.00%
system.ruby.outstanding_req_hist::total     115127803                      
system.ruby.latency_hist::bucket_size           16384                      
system.ruby.latency_hist::max_bucket           163839                      
system.ruby.latency_hist::samples           115127803                      
system.ruby.latency_hist::mean             324.843082                      
system.ruby.latency_hist::gmean              1.189945                      
system.ruby.latency_hist::stdev           2768.217886                      
system.ruby.latency_hist                 |   113955854     98.98%     98.98% |     1077957      0.94%     99.92% |       91704      0.08%    100.00% |        2158      0.00%    100.00% |         115      0.00%    100.00% |          15      0.00%    100.00% |           0      0.00%    100.00% |           0      0.00%    100.00% |           0      0.00%    100.00% |           0      0.00%    100.00%
system.ruby.latency_hist::total             115127803                      
system.ruby.hit_latency_hist::bucket_size         8192                      
system.ruby.hit_latency_hist::max_bucket        81919                      
system.ruby.hit_latency_hist::samples       113751228                      
system.ruby.hit_latency_hist::mean         143.503859                      
system.ruby.hit_latency_hist::gmean          1.068603                      
system.ruby.hit_latency_hist::stdev       1868.731445                      
system.ruby.hit_latency_hist             |   113094550     99.42%     99.42% |       71983      0.06%     99.49% |      242230      0.21%     99.70% |      326364      0.29%     99.99% |       14610      0.01%    100.00% |        1369      0.00%    100.00% |         122      0.00%    100.00% |           0      0.00%    100.00% |           0      0.00%    100.00% |           0      0.00%    100.00%
system.ruby.hit_latency_hist::total         113751228                      
system.ruby.miss_latency_hist::bucket_size        16384                      
system.ruby.miss_latency_hist::max_bucket       163839                      
system.ruby.miss_latency_hist::samples        1376575                      
system.ruby.miss_latency_hist::mean      15309.540165                      
system.ruby.miss_latency_hist::gmean      8617.299714                      
system.ruby.miss_latency_hist::stdev     11182.958021                      
system.ruby.miss_latency_hist            |      789321     57.34%     57.34% |      509363     37.00%     94.34% |       75725      5.50%     99.84% |        2036      0.15%     99.99% |         115      0.01%    100.00% |          15      0.00%    100.00% |           0      0.00%    100.00% |           0      0.00%    100.00% |           0      0.00%    100.00% |           0      0.00%    100.00%
system.ruby.miss_latency_hist::total          1376575                      
system.ruby.L1Cache.incomplete_times                3                      
system.ruby.GPUL2Cache.incomplete_times        894011                      
system.ruby.Directory.incomplete_times         355718                      
system.gpu.shader_mmu.numPagefaults                 0                       # Number of Pagefaults
system.gpu.shader_mmu.numPagewalks              14941                       # Number of Pagewalks
system.gpu.shader_mmu.totalRequests             14941                       # Total number of requests
system.gpu.shader_mmu.l2hits                        0                       # Hits in the shared L2
system.gpu.shader_mmu.prefetchHits                  0                       # Number of prefetch hits
system.gpu.shader_mmu.numPrefetches                 0                       # Number of prefetchs
system.gpu.shader_mmu.prefetchFaults                0                       # Number of faults caused by prefetches
system.gpu.shader_mmu.pagefaultLatency::samples            0                       # Latency to complete the pagefault
system.gpu.shader_mmu.pagefaultLatency::mean          nan                       # Latency to complete the pagefault
system.gpu.shader_mmu.pagefaultLatency::gmean          nan                       # Latency to complete the pagefault
system.gpu.shader_mmu.pagefaultLatency::stdev          nan                       # Latency to complete the pagefault
system.gpu.shader_mmu.pagefaultLatency::0            0                       # Latency to complete the pagefault
system.gpu.shader_mmu.pagefaultLatency::1            0                       # Latency to complete the pagefault
system.gpu.shader_mmu.pagefaultLatency::2            0                       # Latency to complete the pagefault
system.gpu.shader_mmu.pagefaultLatency::3            0                       # Latency to complete the pagefault
system.gpu.shader_mmu.pagefaultLatency::4            0                       # Latency to complete the pagefault
system.gpu.shader_mmu.pagefaultLatency::5            0                       # Latency to complete the pagefault
system.gpu.shader_mmu.pagefaultLatency::6            0                       # Latency to complete the pagefault
system.gpu.shader_mmu.pagefaultLatency::7            0                       # Latency to complete the pagefault
system.gpu.shader_mmu.pagefaultLatency::8            0                       # Latency to complete the pagefault
system.gpu.shader_mmu.pagefaultLatency::9            0                       # Latency to complete the pagefault
system.gpu.shader_mmu.pagefaultLatency::10            0                       # Latency to complete the pagefault
system.gpu.shader_mmu.pagefaultLatency::11            0                       # Latency to complete the pagefault
[...]
system.ruby.L1Cache_Controller.MR.Ifetch |        3304    100.00%    100.00% |           0      0.00%    100.00%
system.ruby.L1Cache_Controller.MR.Ifetch::total         3304                      
system.ruby.L1Cache_Controller.MR.Store  |         268    100.00%    100.00% |           0      0.00%    100.00%
system.ruby.L1Cache_Controller.MR.Store::total          268                      
system.ruby.L1Cache_Controller.MMR.Load  |       44688    100.00%    100.00% |           0      0.00%    100.00%
system.ruby.L1Cache_Controller.MMR.Load::total        44688                      
system.ruby.L1Cache_Controller.MMR.Store |        3560    100.00%    100.00% |           0      0.00%    100.00%
system.ruby.L1Cache_Controller.MMR.Store::total         3560                      
system.ruby.L1Cache_Controller.IM.Ack    |      139897    100.00%    100.00% |           0      0.00%    100.00%
system.ruby.L1Cache_Controller.IM.Ack::total       139897                      
system.ruby.L1Cache_Controller.IM.Exclusive_Data |       72038    100.00%    100.00% |           0      0.00%    100.00%
system.ruby.L1Cache_Controller.IM.Exclusive_Data::total        72038                      
system.ruby.L1Cache_Controller.SM.Ack    |           1    100.00%    100.00% |           0      0.00%    100.00%
system.ruby.L1Cache_Controller.SM.Ack::total            1                      
system.ruby.L1Cache_Controller.SM.Data   |           1    100.00%    100.00% |           0      0.00%    100.00%
system.ruby.L1Cache_Controller.SM.Data::total            1                      
system.ruby.L1Cache_Controller.ISM.All_acks_no_sharers |           1    100.00%    100.00% |           0      0.00%    100.00%
system.ruby.L1Cache_Controller.ISM.All_acks_no_sharers::total            1                      
system.ruby.L1Cache_Controller.M_W.Load  |         520    100.00%    100.00% |           0      0.00%    100.00%
system.ruby.L1Cache_Controller.M_W.Load::total          520                      
system.ruby.L1Cache_Controller.M_W.Ifetch |          34    100.00%    100.00% |           0      0.00%    100.00%
system.ruby.L1Cache_Controller.M_W.Ifetch::total           34                      
system.ruby.L1Cache_Controller.M_W.Ack   |         326    100.00%    100.00% |           0      0.00%    100.00%
system.ruby.L1Cache_Controller.M_W.Ack::total          326                      
system.ruby.L1Cache_Controller.M_W.All_acks_no_sharers |       54804    100.00%    100.00% |           0      0.00%    100.00%
system.ruby.L1Cache_Controller.M_W.All_acks_no_sharers::total        54804                      
system.ruby.L1Cache_Controller.MM_W.Store |       27566    100.00%    100.00% |           0      0.00%    100.00%
system.ruby.L1Cache_Controller.MM_W.Store::total        27566                      
system.ruby.L1Cache_Controller.MM_W.Ack  |        4179    100.00%    100.00% |           0      0.00%    100.00%
system.ruby.L1Cache_Controller.MM_W.Ack::total         4179                      
system.ruby.L1Cache_Controller.MM_W.All_acks_no_sharers |       72038    100.00%    100.00% |           0      0.00%    100.00%
system.ruby.L1Cache_Controller.MM_W.All_acks_no_sharers::total        72038                      
system.ruby.L1Cache_Controller.IS.Ack    |      109285    100.00%    100.00% |           0      0.00%    100.00%
system.ruby.L1Cache_Controller.IS.Ack::total       109285                      
system.ruby.L1Cache_Controller.IS.Data   |           1    100.00%    100.00% |           0      0.00%    100.00%
system.ruby.L1Cache_Controller.IS.Data::total            1                      
system.ruby.L1Cache_Controller.IS.Shared_Data |           1    100.00%    100.00% |           0      0.00%    100.00%
system.ruby.L1Cache_Controller.IS.Shared_Data::total            1                      
system.ruby.L1Cache_Controller.IS.Exclusive_Data |       54804    100.00%    100.00% |           0      0.00%    100.00%
system.ruby.L1Cache_Controller.IS.Exclusive_Data::total        54804                      
system.ruby.L1Cache_Controller.SS.All_acks |           1    100.00%    100.00% |           0      0.00%    100.00%
system.ruby.L1Cache_Controller.SS.All_acks::total            1                      
system.ruby.L1Cache_Controller.SS.All_acks_no_sharers |           1    100.00%    100.00% |           0      0.00%    100.00%
system.ruby.L1Cache_Controller.SS.All_acks_no_sharers::total            1                      
system.ruby.L1Cache_Controller.OI.Writeback_Ack |          31    100.00%    100.00% |           0      0.00%    100.00%
system.ruby.L1Cache_Controller.OI.Writeback_Ack::total           31                      
system.ruby.L1Cache_Controller.MI.Load   |         278    100.00%    100.00% |           0      0.00%    100.00%
system.ruby.L1Cache_Controller.MI.Load::total          278                      
system.ruby.L1Cache_Controller.MI.Ifetch |           1    100.00%    100.00% |           0      0.00%    100.00%
system.ruby.L1Cache_Controller.MI.Ifetch::total            1                      
system.ruby.L1Cache_Controller.MI.Store  |           5    100.00%    100.00% |           0      0.00%    100.00%
system.ruby.L1Cache_Controller.MI.Store::total            5                      
system.ruby.L1Cache_Controller.MI.Writeback_Ack |       75821    100.00%    100.00% |           0      0.00%    100.00%
system.ruby.L1Cache_Controller.MI.Writeback_Ack::total        75821                      
system.ruby.L1Cache_Controller.IT.Complete_L2_to_L1 |         707    100.00%    100.00% |           0      0.00%    100.00%
system.ruby.L1Cache_Controller.IT.Complete_L2_to_L1::total          707                      
system.ruby.L1Cache_Controller.OT.Complete_L2_to_L1 |           3    100.00%    100.00% |           0      0.00%    100.00%
system.ruby.L1Cache_Controller.OT.Complete_L2_to_L1::total            3                      
system.ruby.L1Cache_Controller.MT.Load   |           1    100.00%    100.00% |           0      0.00%    100.00%
system.ruby.L1Cache_Controller.MT.Load::total            1                      
system.ruby.L1Cache_Controller.MT.Complete_L2_to_L1 |        7182    100.00%    100.00% |           0      0.00%    100.00%
system.ruby.L1Cache_Controller.MT.Complete_L2_to_L1::total         7182                      
system.ruby.L1Cache_Controller.MMT.Complete_L2_to_L1 |       48248    100.00%    100.00% |           0      0.00%    100.00%
system.ruby.L1Cache_Controller.MMT.Complete_L2_to_L1::total        48248                      
system.ruby.GPUL1Cache_Controller.Load   |      107812      6.07%      6.07% |      111812      6.30%     12.37% |      108829      6.13%     18.49% |      121686      6.85%     25.34% |      108619      6.12%     31.46% |      115323      6.49%     37.95% |      111716      6.29%     44.24% |      106588      6.00%     50.24% |      109038      6.14%     56.38% |      111283      6.27%     62.65% |      112995      6.36%     69.01% |      107316      6.04%     75.05% |      105833      5.96%     81.01% |      107886      6.07%     87.09% |      111656      6.29%     93.37% |      117730      6.63%    100.00%
system.ruby.GPUL1Cache_Controller.Load::total      1776122                      
system.ruby.GPUL1Cache_Controller.Ifetch |          33      6.29%      6.29% |          33      6.29%     12.57% |          33      6.29%     18.86% |          33      6.29%     25.14% |          33      6.29%     31.43% |          33      6.29%     37.71% |          33      6.29%     44.00% |          33      6.29%     50.29% |          30      5.71%     56.00% |          33      6.29%     62.29% |          33      6.29%     68.57% |          33      6.29%     74.86% |          33      6.29%     81.14% |          33      6.29%     87.43% |          33      6.29%     93.71% |          33      6.29%    100.00%
system.ruby.GPUL1Cache_Controller.Ifetch::total          525                      
system.ruby.GPUL1Cache_Controller.Store  |       41048      6.25%      6.25% |       40920      6.23%     12.48% |       41246      6.28%     18.77% |       41111      6.26%     25.03% |       41101      6.26%     31.29% |       40945      6.24%     37.52% |       40833      6.22%     43.74% |       41289      6.29%     50.03% |       41027      6.25%     56.28% |       40938      6.23%     62.51% |       41089      6.26%     68.77% |       41107      6.26%     75.03% |       40986      6.24%     81.27% |       40963      6.24%     87.51% |       40800      6.21%     93.72% |       41207      6.28%    100.00%
system.ruby.GPUL1Cache_Controller.Store::total       656610                      
system.ruby.GPUL1Cache_Controller.Data   |       77684      6.22%      6.22% |       78233      6.26%     12.48% |       82247      6.58%     19.06% |       77792      6.22%     25.28% |       74506      5.96%     31.24% |       76369      6.11%     37.35% |       77759      6.22%     43.58% |       76902      6.15%     49.73% |       76857      6.15%     55.88% |       75969      6.08%     61.96% |       79895      6.39%     68.35% |       78902      6.31%     74.67% |       83209      6.66%     81.32% |       78540      6.28%     87.61% |       78083      6.25%     93.86% |       76783      6.14%    100.00%
system.ruby.GPUL1Cache_Controller.Data::total      1249730                      
system.ruby.GPUL1Cache_Controller.Replacement |       77172      6.22%      6.22% |       77721      6.26%     12.48% |       81735      6.58%     19.06% |       77280      6.22%     25.28% |       73994      5.96%     31.24% |       75857      6.11%     37.35% |       77247      6.22%     43.58% |       76390      6.15%     49.73% |       76345      6.15%     55.88% |       75457      6.08%     61.96% |       79383      6.39%     68.35% |       78390      6.31%     74.66% |       82697      6.66%     81.32% |       78028      6.28%     87.61% |       77571      6.25%     93.86% |       76271      6.14%    100.00%
system.ruby.GPUL1Cache_Controller.Replacement::total      1241538                      
system.ruby.GPUL1Cache_Controller.Write_Ack |       41048      6.25%      6.25% |       40920      6.23%     12.48% |       41246      6.28%     18.77% |       41111      6.26%     25.03% |       41101      6.26%     31.29% |       40945      6.24%     37.52% |       40833      6.22%     43.74% |       41289      6.29%     50.03% |       41027      6.25%     56.28% |       40938      6.23%     62.51% |       41089      6.26%     68.77% |       41107      6.26%     75.03% |       40986      6.24%     81.27% |       40963      6.24%     87.51% |       40800      6.21%     93.72% |       41207      6.28%    100.00%
system.ruby.GPUL1Cache_Controller.Write_Ack::total       656610                      
system.ruby.GPUL1Cache_Controller.I.Load |       77653      6.22%      6.22% |       78201      6.26%     12.48% |       82216      6.58%     19.06% |       77762      6.22%     25.28% |       74473      5.96%     31.24% |       76337      6.11%     37.35% |       77726      6.22%     43.58% |       76869      6.15%     49.73% |       76829      6.15%     55.88% |       75936      6.08%     61.96% |       79862      6.39%     68.35% |       78870      6.31%     74.67% |       83178      6.66%     81.32% |       78507      6.28%     87.61% |       78050      6.25%     93.86% |       76750      6.14%    100.00%
system.ruby.GPUL1Cache_Controller.I.Load::total      1249219                      
system.ruby.GPUL1Cache_Controller.I.Ifetch |          31      6.07%      6.07% |          32      6.26%     12.33% |          31      6.07%     18.40% |          30      5.87%     24.27% |          33      6.46%     30.72% |          32      6.26%     36.99% |          33      6.46%     43.44% |          33      6.46%     49.90% |          28      5.48%     55.38% |          33      6.46%     61.84% |          33      6.46%     68.30% |          32      6.26%     74.56% |          31      6.07%     80.63% |          33      6.46%     87.08% |          33      6.46%     93.54% |          33      6.46%    100.00%
system.ruby.GPUL1Cache_Controller.I.Ifetch::total          511                      
system.ruby.GPUL1Cache_Controller.I.Store |       41048      6.25%      6.25% |       40920      6.23%     12.48% |       41246      6.28%     18.77% |       41111      6.26%     25.03% |       41101      6.26%     31.29% |       40945      6.24%     37.52% |       40833      6.22%     43.74% |       41289      6.29%     50.03% |       41027      6.25%     56.28% |       40938      6.23%     62.51% |       41089      6.26%     68.77% |       41107      6.26%     75.03% |       40986      6.24%     81.27% |       40963      6.24%     87.51% |       40800      6.21%     93.72% |       41207      6.28%    100.00%
system.ruby.GPUL1Cache_Controller.I.Store::total       656610                      
system.ruby.GPUL1Cache_Controller.V.Load |       30159      5.72%      5.72% |       33611      6.38%     12.10% |       26613      5.05%     17.15% |       43924      8.34%     25.49% |       34146      6.48%     31.97% |       38986      7.40%     39.37% |       33990      6.45%     45.82% |       29719      5.64%     51.46% |       32209      6.11%     57.57% |       35347      6.71%     64.28% |       33133      6.29%     70.57% |       28446      5.40%     75.97% |       22655      4.30%     80.27% |       29379      5.58%     85.84% |       33606      6.38%     92.22% |       40980      7.78%    100.00%
system.ruby.GPUL1Cache_Controller.V.Load::total       526903                      
system.ruby.GPUL1Cache_Controller.V.Ifetch |           2     14.29%     14.29% |           1      7.14%     21.43% |           2     14.29%     35.71% |           3     21.43%     57.14% |           0      0.00%     57.14% |           1      7.14%     64.29% |           0      0.00%     64.29% |           0      0.00%     64.29% |           2     14.29%     78.57% |           0      0.00%     78.57% |           0      0.00%     78.57% |           1      7.14%     85.71% |           2     14.29%    100.00% |           0      0.00%    100.00% |           0      0.00%    100.00% |           0      0.00%    100.00%
system.ruby.GPUL1Cache_Controller.V.Ifetch::total           14                      
system.ruby.GPUL1Cache_Controller.V.Replacement |       77172      6.22%      6.22% |       77721      6.26%     12.48% |       81735      6.58%     19.06% |       77280      6.22%     25.28% |       73994      5.96%     31.24% |       75857      6.11%     37.35% |       77247      6.22%     43.58% |       76390      6.15%     49.73% |       76345      6.15%     55.88% |       75457      6.08%     61.96% |       79383      6.39%     68.35% |       78390      6.31%     74.66% |       82697      6.66%     81.32% |       78028      6.28%     87.61% |       77571      6.25%     93.86% |       76271      6.14%    100.00%
system.ruby.GPUL1Cache_Controller.V.Replacement::total      1241538                      
system.ruby.GPUL1Cache_Controller.IA.Write_Ack |       41048      6.25%      6.25% |       40920      6.23%     12.48% |       41246      6.28%     18.77% |       41111      6.26%     25.03% |       41101      6.26%     31.29% |       40945      6.24%     37.52% |       40833      6.22%     43.74% |       41289      6.29%     50.03% |       41027      6.25%     56.28% |       40938      6.23%     62.51% |       41089      6.26%     68.77% |       41107      6.26%     75.03% |       40986      6.24%     81.27% |       40963      6.24%     87.51% |       40800      6.21%     93.72% |       41207      6.28%    100.00%
system.ruby.GPUL1Cache_Controller.IA.Write_Ack::total       656610                      
system.ruby.GPUL1Cache_Controller.IV.Data |       77684      6.22%      6.22% |       78233      6.26%     12.48% |       82247      6.58%     19.06% |       77792      6.22%     25.28% |       74506      5.96%     31.24% |       76369      6.11%     37.35% |       77759      6.22%     43.58% |       76902      6.15%     49.73% |       76857      6.15%     55.88% |       75969      6.08%     61.96% |       79895      6.39%     68.35% |       78902      6.31%     74.67% |       83209      6.66%     81.32% |       78540      6.28%     87.61% |       78083      6.25%     93.86% |       76783      6.14%    100.00%
system.ruby.GPUL1Cache_Controller.IV.Data::total      1249730                      
system.ruby.GPUL2Cache_Controller.Get         1433332      0.00%      0.00%
system.ruby.GPUL2Cache_Controller.Store        657025      0.00%      0.00%
system.ruby.GPUL2Cache_Controller.Replacement       888483      0.00%      0.00%
system.ruby.GPUL2Cache_Controller.Other_GETX       122960      0.00%      0.00%
system.ruby.GPUL2Cache_Controller.Other_GETS       105727      0.00%      0.00%
system.ruby.GPUL2Cache_Controller.Ack         1783810      0.00%      0.00%
system.ruby.GPUL2Cache_Controller.Shared_Data            3      0.00%      0.00%
system.ruby.GPUL2Cache_Controller.Exclusive_Data       892163      0.00%      0.00%
system.ruby.GPUL2Cache_Controller.Writeback_Ack       883742      0.00%      0.00%
system.ruby.GPUL2Cache_Controller.All_acks            3      0.00%      0.00%
system.ruby.GPUL2Cache_Controller.All_acks_no_sharers       892163      0.00%      0.00%
system.ruby.GPUL2Cache_Controller.I.Get        355719      0.00%      0.00%
system.ruby.GPUL2Cache_Controller.I.Store       536447      0.00%      0.00%
system.ruby.GPUL2Cache_Controller.I.Replacement          229      0.00%      0.00%
system.ruby.GPUL2Cache_Controller.I.Other_GETX       122959      0.00%      0.00%
system.ruby.GPUL2Cache_Controller.I.Other_GETS       103376      0.00%      0.00%
system.ruby.GPUL2Cache_Controller.S.Get            45      0.00%      0.00%
system.ruby.GPUL2Cache_Controller.S.Replacement            3      0.00%      0.00%
system.ruby.GPUL2Cache_Controller.O.Other_GETX            1      0.00%      0.00%
system.ruby.GPUL2Cache_Controller.M.Get        892184      0.00%      0.00%
system.ruby.GPUL2Cache_Controller.M.Replacement       349645      0.00%      0.00%
system.ruby.GPUL2Cache_Controller.M.Other_GETS            1      0.00%      0.00%
system.ruby.GPUL2Cache_Controller.MM.Store       120163      0.00%      0.00%
system.ruby.GPUL2Cache_Controller.MM.Replacement       534097      0.00%      0.00%
system.ruby.GPUL2Cache_Controller.MM.Other_GETS         2350      0.00%      0.00%
system.ruby.GPUL2Cache_Controller.IM.Replacement         3232      0.00%      0.00%
system.ruby.GPUL2Cache_Controller.IM.Ack      1072087      0.00%      0.00%
system.ruby.GPUL2Cache_Controller.IM.Exclusive_Data       536447      0.00%      0.00%
system.ruby.GPUL2Cache_Controller.IS.Get       181028      0.00%      0.00%
system.ruby.GPUL2Cache_Controller.IS.Replacement         1275      0.00%      0.00%
system.ruby.GPUL2Cache_Controller.IS.Ack       707691      0.00%      0.00%
system.ruby.GPUL2Cache_Controller.IS.Shared_Data            3      0.00%      0.00%
system.ruby.GPUL2Cache_Controller.IS.Exclusive_Data       355716      0.00%      0.00%
system.ruby.GPUL2Cache_Controller.SS.Ack            3      0.00%      0.00%
system.ruby.GPUL2Cache_Controller.SS.All_acks            3      0.00%      0.00%
system.ruby.GPUL2Cache_Controller.MI.Get         2574      0.00%      0.00%
system.ruby.GPUL2Cache_Controller.MI.Store          415      0.00%      0.00%
system.ruby.GPUL2Cache_Controller.MI.Writeback_Ack       883742      0.00%      0.00%
system.ruby.GPUL2Cache_Controller.M_W.Get         1782      0.00%      0.00%
system.ruby.GPUL2Cache_Controller.M_W.Ack         3741      0.00%      0.00%
system.ruby.GPUL2Cache_Controller.M_W.All_acks_no_sharers       355716      0.00%      0.00%
system.ruby.GPUL2Cache_Controller.MM_W.Replacement            2      0.00%      0.00%
system.ruby.GPUL2Cache_Controller.MM_W.Ack          288      0.00%      0.00%
system.ruby.GPUL2Cache_Controller.MM_W.All_acks_no_sharers       536447      0.00%      0.00%

---------- End Simulation Statistics   ----------
